taskid: 0 hostname: wn13.e4.cluster
Quilting with   2 groups of   8 I/O tasks.
 Ntasks in X           19 , ntasks in Y           19
  Domain # 1: dx = 22500.000 m
  Domain # 2: dx =  7500.000 m
  Domain # 3: dx =  2500.000 m
WRF V4.4.1 MODEL
No git found or not a git repository, git commit version not available.
 *************************************
 Parent domain
 ids,ide,jds,jde            1         216           1         191
 ims,ime,jms,jme           -4          19          -4          17
 ips,ipe,jps,jpe            1          12           1          10
 *************************************
DYNAMICS OPTION: Eulerian Mass Coordinate
   alloc_space_field: domain            1 ,              24437584  bytes allocated
  med_initialdata_input: calling input_input
 W A R N I N G : Problem opening wrf_var.txt
 W A R N I N G : Problem opening wrf_var.txt
 Ignoring problems reading wrf_var.txt
Continuing.  To make this a fatal error, set ignore_iofields_warn to false in namelist

   Input data is acceptable to use: wrfinput_d01
 CURRENT DATE          = 2022-11-11_00:00:00
 SIMULATION START DATE = 2022-11-11_00:00:00
Timing for processing wrfinput file (stream 0) for domain        1:    0.38274 elapsed seconds
Max map factor in domain 1 =  1.49. Scale the dt in the model accordingly.
 Climate GHG input from file from year         1765  to         2500
 CO2   range =    278.05200000000002        1961.5770000000000       ppm
 N2O   range =    272.95999999999998        526.59900000000005       ppb
 CH4   range =    721.89400000000001        3481.1810000000000       ppb
 CFC11 range =    0.0000000000000000        12.122999999999999       ppt
 CFC12 range =    0.0000000000000000        9.1899999999999995       ppt
 Normal ending of CAMtr_volume_mixing_ratio file
 GHG annual values from CAM trace gas file
 Year =         2022 , Julian day =          315
 CO2   =    4.2315072387000995E-004  volume mixing ratio
 N2O   =    3.3387819228803755E-007  volume mixing ratio
 CH4   =    1.9708773454540846E-006  volume mixing ratio
 CFC11 =    2.8073958258918848E-010  volume mixing ratio
 CFC12 =    4.7190834094732986E-010  volume mixing ratio
INPUT LandUse = "MODIFIED_IGBP_MODIS_NOAH"
 LANDUSE TYPE = "MODIFIED_IGBP_MODIS_NOAH" FOUND          41  CATEGORIES           2  SEASONS WATER CATEGORY =           17  SNOW CATEGORY =           15
INITIALIZE THREE LSM RELATED TABLES
 RUCLSMINIT uses MODI-RUC
 INPUT VEGPARM FOR MODI-RUC
 VEGPARM FOR USGS     FOUND          27  CATEGORIES
 Skipping USGS     table
 VEGPARM FOR MODIFIED FOUND          20  CATEGORIES
 Skipping MODIFIED table
 VEGPARM FOR NLCD40   FOUND          40  CATEGORIES
 Skipping NLCD40   table
 VEGPARM FOR USGS-RUC FOUND          28  CATEGORIES
 Skipping USGS-RUC table
 VEGPARM FOR MODI-RUC FOUND          21  CATEGORIES
 Found MODI-RUC table
 Reading MODI-RUC table
 INPUT SOIL TEXTURE CLASSIFICATION = STAS-RUC
 SOIL TEXTURE CLASSIFICATION = STAS-RUC FOUND          19  CATEGORIES
 *************************************
 Nesting domain
 ids,ide,jds,jde            1         523           1         448
 ims,ime,jms,jme           -4          39          -4          36
 ips,ipe,jps,jpe            1          28           1          24
 INTERMEDIATE domain
 ids,ide,jds,jde           19         198          19         173
 ims,ime,jms,jme           14          39          14          38
 ips,ipe,jps,jpe           17          29          17          28
 *************************************
d01 2022-11-11_00:00:00  alloc_space_field: domain            2 ,               8704800  bytes allocated
d01 2022-11-11_00:00:00  alloc_space_field: domain            2 ,              67986416  bytes allocated
d01 2022-11-11_00:00:00 *** Initializing nest domain # 2 from an input file. ***
d01 2022-11-11_00:00:00 med_initialdata_input: calling input_input
 W A R N I N G : Problem opening wrf_var.txt
d01 2022-11-11_00:00:00  Input data is acceptable to use: wrfinput_d02
Timing for processing wrfinput file (stream 0) for domain        2:    2.19656 elapsed seconds
 Climate GHG input from file from year         1765  to         2500
 CO2   range =    278.05200000000002        1961.5770000000000       ppm
 N2O   range =    272.95999999999998        526.59900000000005       ppb
 CH4   range =    721.89400000000001        3481.1810000000000       ppb
 CFC11 range =    0.0000000000000000        12.122999999999999       ppt
 CFC12 range =    0.0000000000000000        9.1899999999999995       ppt
 Normal ending of CAMtr_volume_mixing_ratio file
 GHG annual values from CAM trace gas file
 Year =         2022 , Julian day =          315
 CO2   =    4.2315072387000995E-004  volume mixing ratio
 N2O   =    3.3387819228803755E-007  volume mixing ratio
 CH4   =    1.9708773454540846E-006  volume mixing ratio
 CFC11 =    2.8073958258918848E-010  volume mixing ratio
 CFC12 =    4.7190834094732986E-010  volume mixing ratio
INPUT LandUse = "MODIFIED_IGBP_MODIS_NOAH"
 LANDUSE TYPE = "MODIFIED_IGBP_MODIS_NOAH" FOUND          41  CATEGORIES           2  SEASONS WATER CATEGORY =           17  SNOW CATEGORY =           15
INITIALIZE THREE LSM RELATED TABLES
 RUCLSMINIT uses MODI-RUC
 INPUT VEGPARM FOR MODI-RUC
 VEGPARM FOR USGS     FOUND          27  CATEGORIES
 Skipping USGS     table
 VEGPARM FOR MODIFIED FOUND          20  CATEGORIES
 Skipping MODIFIED table
 VEGPARM FOR NLCD40   FOUND          40  CATEGORIES
 Skipping NLCD40   table
 VEGPARM FOR USGS-RUC FOUND          28  CATEGORIES
 Skipping USGS-RUC table
 VEGPARM FOR MODI-RUC FOUND          21  CATEGORIES
 Found MODI-RUC table
 Reading MODI-RUC table
 INPUT SOIL TEXTURE CLASSIFICATION = STAS-RUC
 SOIL TEXTURE CLASSIFICATION = STAS-RUC FOUND          19  CATEGORIES
 Climate GHG input from file from year         1765  to         2500
 CO2   range =    278.05200000000002        1961.5770000000000       ppm
 N2O   range =    272.95999999999998        526.59900000000005       ppb
 CH4   range =    721.89400000000001        3481.1810000000000       ppb
 CFC11 range =    0.0000000000000000        12.122999999999999       ppt
 CFC12 range =    0.0000000000000000        9.1899999999999995       ppt
 Normal ending of CAMtr_volume_mixing_ratio file
 GHG annual values from CAM trace gas file
 Year =         2022 , Julian day =          315
 CO2   =    4.2315072387000995E-004  volume mixing ratio
 N2O   =    3.3387819228803755E-007  volume mixing ratio
 CH4   =    1.9708773454540846E-006  volume mixing ratio
 CFC11 =    2.8073958258918848E-010  volume mixing ratio
 CFC12 =    4.7190834094732986E-010  volume mixing ratio
INPUT LandUse = "MODIFIED_IGBP_MODIS_NOAH"
 LANDUSE TYPE = "MODIFIED_IGBP_MODIS_NOAH" FOUND          41  CATEGORIES           2  SEASONS WATER CATEGORY =           17  SNOW CATEGORY =           15
INITIALIZE THREE LSM RELATED TABLES
 RUCLSMINIT uses MODI-RUC
 INPUT VEGPARM FOR MODI-RUC
 VEGPARM FOR USGS     FOUND          27  CATEGORIES
 Skipping USGS     table
 VEGPARM FOR MODIFIED FOUND          20  CATEGORIES
 Skipping MODIFIED table
 VEGPARM FOR NLCD40   FOUND          40  CATEGORIES
 Skipping NLCD40   table
 VEGPARM FOR USGS-RUC FOUND          28  CATEGORIES
 Skipping USGS-RUC table
 VEGPARM FOR MODI-RUC FOUND          21  CATEGORIES
 Found MODI-RUC table
 Reading MODI-RUC table
 INPUT SOIL TEXTURE CLASSIFICATION = STAS-RUC
 SOIL TEXTURE CLASSIFICATION = STAS-RUC FOUND          19  CATEGORIES
Max map factor in domain 1 =  1.49. Scale the dt in the model accordingly.
 Climate GHG input from file from year         1765  to         2500
 CO2   range =    278.05200000000002        1961.5770000000000       ppm
 N2O   range =    272.95999999999998        526.59900000000005       ppb
 CH4   range =    721.89400000000001        3481.1810000000000       ppb
 CFC11 range =    0.0000000000000000        12.122999999999999       ppt
 CFC12 range =    0.0000000000000000        9.1899999999999995       ppt
 Normal ending of CAMtr_volume_mixing_ratio file
 GHG annual values from CAM trace gas file
 Year =         2022 , Julian day =          315
 CO2   =    4.2315072387000995E-004  volume mixing ratio
 N2O   =    3.3387819228803755E-007  volume mixing ratio
 CH4   =    1.9708773454540846E-006  volume mixing ratio
 CFC11 =    2.8073958258918848E-010  volume mixing ratio
 CFC12 =    4.7190834094732986E-010  volume mixing ratio
INPUT LandUse = "MODIFIED_IGBP_MODIS_NOAH"
 LANDUSE TYPE = "MODIFIED_IGBP_MODIS_NOAH" FOUND          41  CATEGORIES           2  SEASONS WATER CATEGORY =           17  SNOW CATEGORY =           15
INITIALIZE THREE LSM RELATED TABLES
 RUCLSMINIT uses MODI-RUC
 INPUT VEGPARM FOR MODI-RUC
 VEGPARM FOR USGS     FOUND          27  CATEGORIES
 Skipping USGS     table
 VEGPARM FOR MODIFIED FOUND          20  CATEGORIES
 Skipping MODIFIED table
 VEGPARM FOR NLCD40   FOUND          40  CATEGORIES
 Skipping NLCD40   table
 VEGPARM FOR USGS-RUC FOUND          28  CATEGORIES
 Skipping USGS-RUC table
 VEGPARM FOR MODI-RUC FOUND          21  CATEGORIES
 Found MODI-RUC table
 Reading MODI-RUC table
 INPUT SOIL TEXTURE CLASSIFICATION = STAS-RUC
 SOIL TEXTURE CLASSIFICATION = STAS-RUC FOUND          19  CATEGORIES
 W A R N I N G : Problem opening wrf_var.txt
 W A R N I N G : Problem opening wrf_var.txt
Timing for Writing wrfout_d01_2022-11-11_00:00:00 for domain        1:    0.54348 elapsed seconds
 W A R N I N G : Problem opening wrf_var.txt
 W A R N I N G : Problem opening wrf_var.txt
Timing for Writing auxhist23_d01_2022-11-11_00:00:00 for domain        1:    0.07917 elapsed seconds
 W A R N I N G : Problem opening wrf_var.txt
d01 2022-11-11_00:00:00  Input data is acceptable to use: wrfbdy_d01
Timing for processing lateral boundary for domain        1:    0.27946 elapsed seconds
 Tile Strategy is not specified. Assuming 1D-Y
WRF TILE   1 IS      1 IE     12 JS      1 JE     10
WRF NUMBER OF TILES =   1
d01 2022-11-11_00:00:00  ----------------------------------------
d01 2022-11-11_00:00:00  W-DAMPING  BEGINS AT W-COURANT NUMBER =    1.00000000
d01 2022-11-11_00:00:00  ----------------------------------------
 *************************************
 Nesting domain
 ids,ide,jds,jde            1         430           1         469
 ims,ime,jms,jme           -4          33          -4          36
 ips,ipe,jps,jpe            1          23           1          25
 INTERMEDIATE domain
 ids,ide,jds,jde          160         308          77         238
 ims,ime,jms,jme          155         179          72          96
 ips,ipe,jps,jpe          158         169          75          86
 *************************************
d02 2022-11-11_00:00:00  alloc_space_field: domain            3 ,               8370000  bytes allocated
d02 2022-11-11_00:00:00  alloc_space_field: domain            3 ,              59690624  bytes allocated
d02 2022-11-11_00:00:00 *** Initializing nest domain # 3 from an input file. ***
d02 2022-11-11_00:00:00 med_initialdata_input: calling input_input
 W A R N I N G : Problem opening wrf_var.txt
d02 2022-11-11_00:00:00  Input data is acceptable to use: wrfinput_d03
Timing for processing wrfinput file (stream 0) for domain        3:    1.91629 elapsed seconds
 Climate GHG input from file from year         1765  to         2500
 CO2   range =    278.05200000000002        1961.5770000000000       ppm
 N2O   range =    272.95999999999998        526.59900000000005       ppb
 CH4   range =    721.89400000000001        3481.1810000000000       ppb
 CFC11 range =    0.0000000000000000        12.122999999999999       ppt
 CFC12 range =    0.0000000000000000        9.1899999999999995       ppt
 Normal ending of CAMtr_volume_mixing_ratio file
 GHG annual values from CAM trace gas file
 Year =         2022 , Julian day =          315
 CO2   =    4.2315072387000995E-004  volume mixing ratio
 N2O   =    3.3387819228803755E-007  volume mixing ratio
 CH4   =    1.9708773454540846E-006  volume mixing ratio
 CFC11 =    2.8073958258918848E-010  volume mixing ratio
 CFC12 =    4.7190834094732986E-010  volume mixing ratio
INPUT LandUse = "MODIFIED_IGBP_MODIS_NOAH"
 LANDUSE TYPE = "MODIFIED_IGBP_MODIS_NOAH" FOUND          41  CATEGORIES           2  SEASONS WATER CATEGORY =           17  SNOW CATEGORY =           15
INITIALIZE THREE LSM RELATED TABLES
 RUCLSMINIT uses MODI-RUC
 INPUT VEGPARM FOR MODI-RUC
 VEGPARM FOR USGS     FOUND          27  CATEGORIES
 Skipping USGS     table
 VEGPARM FOR MODIFIED FOUND          20  CATEGORIES
 Skipping MODIFIED table
 VEGPARM FOR NLCD40   FOUND          40  CATEGORIES
 Skipping NLCD40   table
 VEGPARM FOR USGS-RUC FOUND          28  CATEGORIES
 Skipping USGS-RUC table
 VEGPARM FOR MODI-RUC FOUND          21  CATEGORIES
 Found MODI-RUC table
 Reading MODI-RUC table
 INPUT SOIL TEXTURE CLASSIFICATION = STAS-RUC
 SOIL TEXTURE CLASSIFICATION = STAS-RUC FOUND          19  CATEGORIES
 Climate GHG input from file from year         1765  to         2500
 CO2   range =    278.05200000000002        1961.5770000000000       ppm
 N2O   range =    272.95999999999998        526.59900000000005       ppb
 CH4   range =    721.89400000000001        3481.1810000000000       ppb
 CFC11 range =    0.0000000000000000        12.122999999999999       ppt
 CFC12 range =    0.0000000000000000        9.1899999999999995       ppt
 Normal ending of CAMtr_volume_mixing_ratio file
 GHG annual values from CAM trace gas file
 Year =         2022 , Julian day =          315
 CO2   =    4.2315072387000995E-004  volume mixing ratio
 N2O   =    3.3387819228803755E-007  volume mixing ratio
 CH4   =    1.9708773454540846E-006  volume mixing ratio
 CFC11 =    2.8073958258918848E-010  volume mixing ratio
 CFC12 =    4.7190834094732986E-010  volume mixing ratio
INPUT LandUse = "MODIFIED_IGBP_MODIS_NOAH"
 LANDUSE TYPE = "MODIFIED_IGBP_MODIS_NOAH" FOUND          41  CATEGORIES           2  SEASONS WATER CATEGORY =           17  SNOW CATEGORY =           15
INITIALIZE THREE LSM RELATED TABLES
 RUCLSMINIT uses MODI-RUC
 INPUT VEGPARM FOR MODI-RUC
 VEGPARM FOR USGS     FOUND          27  CATEGORIES
 Skipping USGS     table
 VEGPARM FOR MODIFIED FOUND          20  CATEGORIES
 Skipping MODIFIED table
 VEGPARM FOR NLCD40   FOUND          40  CATEGORIES
 Skipping NLCD40   table
 VEGPARM FOR USGS-RUC FOUND          28  CATEGORIES
 Skipping USGS-RUC table
 VEGPARM FOR MODI-RUC FOUND          21  CATEGORIES
 Found MODI-RUC table
 Reading MODI-RUC table
 INPUT SOIL TEXTURE CLASSIFICATION = STAS-RUC
 SOIL TEXTURE CLASSIFICATION = STAS-RUC FOUND          19  CATEGORIES
 Climate GHG input from file from year         1765  to         2500
 CO2   range =    278.05200000000002        1961.5770000000000       ppm
 N2O   range =    272.95999999999998        526.59900000000005       ppb
 CH4   range =    721.89400000000001        3481.1810000000000       ppb
 CFC11 range =    0.0000000000000000        12.122999999999999       ppt
 CFC12 range =    0.0000000000000000        9.1899999999999995       ppt
 Normal ending of CAMtr_volume_mixing_ratio file
 GHG annual values from CAM trace gas file
 Year =         2022 , Julian day =          315
 CO2   =    4.2315072387000995E-004  volume mixing ratio
 N2O   =    3.3387819228803755E-007  volume mixing ratio
 CH4   =    1.9708773454540846E-006  volume mixing ratio
 CFC11 =    2.8073958258918848E-010  volume mixing ratio
 CFC12 =    4.7190834094732986E-010  volume mixing ratio
INPUT LandUse = "MODIFIED_IGBP_MODIS_NOAH"
 LANDUSE TYPE = "MODIFIED_IGBP_MODIS_NOAH" FOUND          41  CATEGORIES           2  SEASONS WATER CATEGORY =           17  SNOW CATEGORY =           15
INITIALIZE THREE LSM RELATED TABLES
 RUCLSMINIT uses MODI-RUC
 INPUT VEGPARM FOR MODI-RUC
 VEGPARM FOR USGS     FOUND          27  CATEGORIES
 Skipping USGS     table
 VEGPARM FOR MODIFIED FOUND          20  CATEGORIES
 Skipping MODIFIED table
 VEGPARM FOR NLCD40   FOUND          40  CATEGORIES
 Skipping NLCD40   table
 VEGPARM FOR USGS-RUC FOUND          28  CATEGORIES
 Skipping USGS-RUC table
 VEGPARM FOR MODI-RUC FOUND          21  CATEGORIES
 Found MODI-RUC table
 Reading MODI-RUC table
 INPUT SOIL TEXTURE CLASSIFICATION = STAS-RUC
 SOIL TEXTURE CLASSIFICATION = STAS-RUC FOUND          19  CATEGORIES
 W A R N I N G : Problem opening wrf_var.txt
 W A R N I N G : Problem opening wrf_var.txt
Timing for Writing wrfout_d02_2022-11-11_00:00:00 for domain        2:    0.10470 elapsed seconds
 W A R N I N G : Problem opening wrf_var.txt
 W A R N I N G : Problem opening wrf_var.txt
Timing for Writing auxhist23_d02_2022-11-11_00:00:00 for domain        2:    0.01752 elapsed seconds
 Tile Strategy is not specified. Assuming 1D-Y
WRF TILE   1 IS      1 IE     28 JS      1 JE     24
WRF NUMBER OF TILES =   1
 W A R N I N G : Problem opening wrf_var.txt
 W A R N I N G : Problem opening wrf_var.txt
Timing for Writing wrfout_d03_2022-11-11_00:00:00 for domain        3:    3.86609 elapsed seconds
 W A R N I N G : Problem opening wrf_var.txt
 W A R N I N G : Problem opening wrf_var.txt
Timing for Writing auxhist23_d03_2022-11-11_00:00:00 for domain        3:    0.00871 elapsed seconds
 Tile Strategy is not specified. Assuming 1D-Y
WRF TILE   1 IS      1 IE     23 JS      1 JE     25
WRF NUMBER OF TILES =   1
Timing for main (dt= 20.00): time 2022-11-11_00:00:20 on domain   3:    4.43409 elapsed seconds
Timing for main (dt= 20.00): time 2022-11-11_00:00:40 on domain   3:    0.15541 elapsed seconds
Timing for main (dt= 20.00): time 2022-11-11_00:01:00 on domain   3:    0.15647 elapsed seconds
Timing for main (dt= 60.00): time 2022-11-11_00:01:00 on domain   2:    8.37366 elapsed seconds
Timing for main (dt= 20.00): time 2022-11-11_00:01:20 on domain   3:    0.16170 elapsed seconds
Timing for main (dt= 20.00): time 2022-11-11_00:01:40 on domain   3:    0.15538 elapsed seconds
Timing for main (dt= 20.00): time 2022-11-11_00:02:00 on domain   3:    0.15489 elapsed seconds
Timing for main (dt= 60.00): time 2022-11-11_00:02:00 on domain   2:    0.88094 elapsed seconds
Timing for main (dt= 20.00): time 2022-11-11_00:02:20 on domain   3:    0.16450 elapsed seconds
Timing for main (dt= 20.00): time 2022-11-11_00:02:40 on domain   3:    0.15594 elapsed seconds
Timing for main (dt= 20.00): time 2022-11-11_00:03:00 on domain   3:    0.15463 elapsed seconds
Timing for main (dt= 60.00): time 2022-11-11_00:03:00 on domain   2:    0.88081 elapsed seconds
Timing for main (dt=180.00): time 2022-11-11_00:03:00 on domain   1:   14.17510 elapsed seconds
Timing for main (dt= 18.90): time 2022-11-11_00:03:18 on domain   3:    0.16515 elapsed seconds
Timing for main (dt= 18.90): time 2022-11-11_00:03:37 on domain   3:    0.15673 elapsed seconds
Timing for main (dt= 18.90): time 2022-11-11_00:03:56 on domain   3:    0.16460 elapsed seconds
Timing for main (dt= 56.70): time 2022-11-11_00:03:56 on domain   2:    0.91021 elapsed seconds
Timing for main (dt= 18.90): time 2022-11-11_00:04:15 on domain   3:    0.16795 elapsed seconds
Timing for main (dt= 18.90): time 2022-11-11_00:04:34 on domain   3:    0.15796 elapsed seconds
Timing for main (dt= 18.90): time 2022-11-11_00:04:53 on domain   3:    0.15673 elapsed seconds
Timing for main (dt= 56.70): time 2022-11-11_00:04:53 on domain   2:    0.88455 elapsed seconds
Timing for main (dt=113.40): time 2022-11-11_00:04:53 on domain   1:    2.00753 elapsed seconds
Timing for main (dt= 19.84): time 2022-11-11_00:05:13 on domain   3:    0.16346 elapsed seconds
Timing for main (dt= 19.84): time 2022-11-11_00:05:33 on domain   3:    0.39305 elapsed seconds
Timing for main (dt= 19.84): time 2022-11-11_00:05:52 on domain   3:    0.15521 elapsed seconds
Timing for main (dt= 59.53): time 2022-11-11_00:05:52 on domain   2:    1.12741 elapsed seconds
Timing for main (dt= 19.84): time 2022-11-11_00:06:12 on domain   3:    0.16622 elapsed seconds
Timing for main (dt= 19.84): time 2022-11-11_00:06:32 on domain   3:    0.15986 elapsed seconds
Timing for main (dt= 19.84): time 2022-11-11_00:06:52 on domain   3:    0.15478 elapsed seconds
Timing for main (dt= 59.53): time 2022-11-11_00:06:52 on domain   2:    1.19350 elapsed seconds
Timing for main (dt=119.07): time 2022-11-11_00:06:52 on domain   1:    2.53375 elapsed seconds
Timing for main (dt= 13.89): time 2022-11-11_00:07:06 on domain   3:    0.15708 elapsed seconds
Timing for main (dt= 13.89): time 2022-11-11_00:07:20 on domain   3:    0.14770 elapsed seconds
Timing for main (dt= 13.89): time 2022-11-11_00:07:34 on domain   3:    0.14869 elapsed seconds
Timing for main (dt= 41.67): time 2022-11-11_00:07:34 on domain   2:    0.86165 elapsed seconds
Timing for main (dt= 13.89): time 2022-11-11_00:07:48 on domain   3:    0.15803 elapsed seconds
Timing for main (dt= 13.89): time 2022-11-11_00:08:01 on domain   3:    0.14635 elapsed seconds
Timing for main (dt= 13.89): time 2022-11-11_00:08:15 on domain   3:    0.15031 elapsed seconds
Timing for main (dt= 41.67): time 2022-11-11_00:08:15 on domain   2:    0.85856 elapsed seconds
Timing for main (dt= 13.89): time 2022-11-11_00:08:29 on domain   3:    0.15680 elapsed seconds
Timing for main (dt= 13.89): time 2022-11-11_00:08:43 on domain   3:    0.14781 elapsed seconds
Timing for main (dt= 13.89): time 2022-11-11_00:08:57 on domain   3:    0.14861 elapsed seconds
Timing for main (dt= 41.67): time 2022-11-11_00:08:57 on domain   2:    0.86009 elapsed seconds
Timing for main (dt=125.02): time 2022-11-11_00:08:57 on domain   1:    2.84790 elapsed seconds
Timing for main (dt= 14.59): time 2022-11-11_00:09:12 on domain   3:    0.15700 elapsed seconds
Timing for main (dt= 14.59): time 2022-11-11_00:09:26 on domain   3:    0.14736 elapsed seconds
Timing for main (dt= 14.59): time 2022-11-11_00:09:41 on domain   3:    0.14735 elapsed seconds
Timing for main (dt= 43.76): time 2022-11-11_00:09:41 on domain   2:    0.86183 elapsed seconds
Timing for main (dt= 14.59): time 2022-11-11_00:09:55 on domain   3:    0.15554 elapsed seconds
Timing for main (dt= 14.59): time 2022-11-11_00:10:10 on domain   3:    0.14949 elapsed seconds
Timing for main (dt= 14.59): time 2022-11-11_00:10:25 on domain   3:    0.14880 elapsed seconds
Timing for main (dt= 43.76): time 2022-11-11_00:10:25 on domain   2:    0.85901 elapsed seconds
Timing for main (dt= 14.59): time 2022-11-11_00:10:39 on domain   3:    0.41186 elapsed seconds
Timing for main (dt= 14.59): time 2022-11-11_00:10:54 on domain   3:    0.14902 elapsed seconds
Timing for main (dt= 14.59): time 2022-11-11_00:11:08 on domain   3:    0.14851 elapsed seconds
Timing for main (dt= 43.76): time 2022-11-11_00:11:08 on domain   2:    1.11234 elapsed seconds
Timing for main (dt=131.27): time 2022-11-11_00:11:08 on domain   1:    3.04331 elapsed seconds
Timing for main (dt= 15.02): time 2022-11-11_00:11:23 on domain   3:    0.15815 elapsed seconds
Timing for main (dt= 15.02): time 2022-11-11_00:11:38 on domain   3:    0.14840 elapsed seconds
Timing for main (dt= 15.02): time 2022-11-11_00:11:53 on domain   3:    0.14810 elapsed seconds
Timing for main (dt= 45.07): time 2022-11-11_00:11:53 on domain   2:    1.16769 elapsed seconds
Timing for main (dt= 15.02): time 2022-11-11_00:12:08 on domain   3:    0.15719 elapsed seconds
Timing for main (dt= 15.02): time 2022-11-11_00:12:23 on domain   3:    0.14971 elapsed seconds
Timing for main (dt= 15.02): time 2022-11-11_00:12:38 on domain   3:    0.14751 elapsed seconds
Timing for main (dt= 45.07): time 2022-11-11_00:12:38 on domain   2:    0.85864 elapsed seconds
Timing for main (dt= 15.02): time 2022-11-11_00:12:53 on domain   3:    0.15624 elapsed seconds
Timing for main (dt= 15.02): time 2022-11-11_00:13:08 on domain   3:    0.14701 elapsed seconds
Timing for main (dt= 15.02): time 2022-11-11_00:13:23 on domain   3:    0.14955 elapsed seconds
Timing for main (dt= 45.07): time 2022-11-11_00:13:23 on domain   2:    0.85785 elapsed seconds
Timing for main (dt=135.21): time 2022-11-11_00:13:23 on domain   1:    3.09746 elapsed seconds
Timing for main (dt= 15.02): time 2022-11-11_00:13:38 on domain   3:    0.15409 elapsed seconds
Timing for main (dt= 15.02): time 2022-11-11_00:13:54 on domain   3:    0.14943 elapsed seconds
Timing for main (dt= 15.02): time 2022-11-11_00:14:09 on domain   3:    0.14870 elapsed seconds
Timing for main (dt= 45.07): time 2022-11-11_00:14:09 on domain   2:    0.86388 elapsed seconds
Timing for main (dt= 15.02): time 2022-11-11_00:14:24 on domain   3:    0.15817 elapsed seconds
Timing for main (dt= 15.02): time 2022-11-11_00:14:39 on domain   3:    0.15029 elapsed seconds
Timing for main (dt= 15.02): time 2022-11-11_00:14:54 on domain   3:    0.14868 elapsed seconds
Timing for main (dt= 45.07): time 2022-11-11_00:14:54 on domain   2:    0.85697 elapsed seconds
Timing for main (dt= 15.02): time 2022-11-11_00:15:09 on domain   3:    0.15586 elapsed seconds
Timing for main (dt= 15.02): time 2022-11-11_00:15:24 on domain   3:    0.14904 elapsed seconds
Timing for main (dt= 15.02): time 2022-11-11_00:15:39 on domain   3:    0.14936 elapsed seconds
Timing for main (dt= 45.07): time 2022-11-11_00:15:39 on domain   2:    0.85893 elapsed seconds
Timing for main (dt=135.21): time 2022-11-11_00:15:39 on domain   1:    2.84689 elapsed seconds
Timing for main (dt= 15.02): time 2022-11-11_00:15:54 on domain   3:    0.39161 elapsed seconds
Timing for main (dt= 15.02): time 2022-11-11_00:16:09 on domain   3:    0.14815 elapsed seconds
Timing for main (dt= 15.02): time 2022-11-11_00:16:24 on domain   3:    0.14751 elapsed seconds
Timing for main (dt= 45.07): time 2022-11-11_00:16:24 on domain   2:    1.09719 elapsed seconds
Timing for main (dt= 15.02): time 2022-11-11_00:16:39 on domain   3:    0.15541 elapsed seconds
Timing for main (dt= 15.02): time 2022-11-11_00:16:54 on domain   3:    0.14938 elapsed seconds
Timing for main (dt= 15.02): time 2022-11-11_00:17:09 on domain   3:    0.14793 elapsed seconds
Timing for main (dt= 45.07): time 2022-11-11_00:17:09 on domain   2:    1.16351 elapsed seconds
Timing for main (dt= 15.02): time 2022-11-11_00:17:24 on domain   3:    0.15539 elapsed seconds
Timing for main (dt= 15.02): time 2022-11-11_00:17:39 on domain   3:    0.14907 elapsed seconds
Timing for main (dt= 15.02): time 2022-11-11_00:17:54 on domain   3:    0.14914 elapsed seconds
Timing for main (dt= 45.07): time 2022-11-11_00:17:54 on domain   2:    0.85846 elapsed seconds
Timing for main (dt=135.21): time 2022-11-11_00:17:54 on domain   1:    3.33528 elapsed seconds
Timing for main (dt= 15.02): time 2022-11-11_00:18:09 on domain   3:    0.15447 elapsed seconds
Timing for main (dt= 15.02): time 2022-11-11_00:18:24 on domain   3:    0.15043 elapsed seconds
Timing for main (dt= 15.02): time 2022-11-11_00:18:39 on domain   3:    0.14768 elapsed seconds
Timing for main (dt= 45.07): time 2022-11-11_00:18:39 on domain   2:    0.86494 elapsed seconds
Timing for main (dt= 15.02): time 2022-11-11_00:18:54 on domain   3:    0.15595 elapsed seconds
Timing for main (dt= 15.02): time 2022-11-11_00:19:09 on domain   3:    0.14933 elapsed seconds
Timing for main (dt= 15.02): time 2022-11-11_00:19:24 on domain   3:    0.14939 elapsed seconds
Timing for main (dt= 45.07): time 2022-11-11_00:19:24 on domain   2:    0.85467 elapsed seconds
Timing for main (dt= 15.02): time 2022-11-11_00:19:39 on domain   3:    0.15468 elapsed seconds
Timing for main (dt= 15.02): time 2022-11-11_00:19:54 on domain   3:    0.15053 elapsed seconds
Timing for main (dt= 15.02): time 2022-11-11_00:20:09 on domain   3:    0.14869 elapsed seconds
Timing for main (dt= 45.07): time 2022-11-11_00:20:09 on domain   2:    0.85756 elapsed seconds
Timing for main (dt=135.21): time 2022-11-11_00:20:09 on domain   1:    2.79014 elapsed seconds
Timing for main (dt= 15.02): time 2022-11-11_00:20:24 on domain   3:    0.15692 elapsed seconds
Timing for main (dt= 15.02): time 2022-11-11_00:20:39 on domain   3:    0.14816 elapsed seconds
Timing for main (dt= 15.02): time 2022-11-11_00:20:54 on domain   3:    0.40427 elapsed seconds
Timing for main (dt= 45.07): time 2022-11-11_00:20:54 on domain   2:    1.11752 elapsed seconds
Timing for main (dt= 15.02): time 2022-11-11_00:21:09 on domain   3:    0.15560 elapsed seconds
Timing for main (dt= 15.02): time 2022-11-11_00:21:24 on domain   3:    0.14881 elapsed seconds
Timing for main (dt= 15.02): time 2022-11-11_00:21:39 on domain   3:    0.14848 elapsed seconds
Timing for main (dt= 45.07): time 2022-11-11_00:21:39 on domain   2:    0.85698 elapsed seconds
Timing for main (dt= 15.02): time 2022-11-11_00:21:54 on domain   3:    0.15667 elapsed seconds
Timing for main (dt= 15.02): time 2022-11-11_00:22:09 on domain   3:    0.15059 elapsed seconds
Timing for main (dt= 15.02): time 2022-11-11_00:22:24 on domain   3:    0.14846 elapsed seconds
Timing for main (dt= 45.07): time 2022-11-11_00:22:24 on domain   2:    1.15973 elapsed seconds
Timing for main (dt=135.21): time 2022-11-11_00:22:24 on domain   1:    3.39972 elapsed seconds
Timing for main (dt= 15.02): time 2022-11-11_00:22:39 on domain   3:    0.15428 elapsed seconds
Timing for main (dt= 15.02): time 2022-11-11_00:22:54 on domain   3:    0.14858 elapsed seconds
Timing for main (dt= 15.02): time 2022-11-11_00:23:09 on domain   3:    0.14963 elapsed seconds
Timing for main (dt= 45.07): time 2022-11-11_00:23:09 on domain   2:    0.86550 elapsed seconds
Timing for main (dt= 15.02): time 2022-11-11_00:23:24 on domain   3:    0.15533 elapsed seconds
Timing for main (dt= 15.02): time 2022-11-11_00:23:39 on domain   3:    0.14956 elapsed seconds
Timing for main (dt= 15.02): time 2022-11-11_00:23:54 on domain   3:    0.14845 elapsed seconds
Timing for main (dt= 45.07): time 2022-11-11_00:23:54 on domain   2:    0.85367 elapsed seconds
Timing for main (dt= 15.02): time 2022-11-11_00:24:09 on domain   3:    0.15836 elapsed seconds
Timing for main (dt= 15.02): time 2022-11-11_00:24:24 on domain   3:    0.14915 elapsed seconds
Timing for main (dt= 15.02): time 2022-11-11_00:24:40 on domain   3:    0.14930 elapsed seconds
Timing for main (dt= 45.07): time 2022-11-11_00:24:40 on domain   2:    0.86072 elapsed seconds
Timing for main (dt=135.21): time 2022-11-11_00:24:40 on domain   1:    2.78869 elapsed seconds
Timing for main (dt= 15.02): time 2022-11-11_00:24:55 on domain   3:    0.15665 elapsed seconds
Timing for main (dt= 15.02): time 2022-11-11_00:25:10 on domain   3:    0.14873 elapsed seconds
Timing for main (dt= 15.02): time 2022-11-11_00:25:25 on domain   3:    0.15043 elapsed seconds
Timing for main (dt= 45.07): time 2022-11-11_00:25:25 on domain   2:    0.86921 elapsed seconds
Timing for main (dt= 15.02): time 2022-11-11_00:25:40 on domain   3:    0.15511 elapsed seconds
Timing for main (dt= 15.02): time 2022-11-11_00:25:55 on domain   3:    0.37982 elapsed seconds
Timing for main (dt= 15.02): time 2022-11-11_00:26:10 on domain   3:    0.14854 elapsed seconds
Timing for main (dt= 45.07): time 2022-11-11_00:26:10 on domain   2:    1.08520 elapsed seconds
Timing for main (dt= 15.02): time 2022-11-11_00:26:25 on domain   3:    0.15525 elapsed seconds
Timing for main (dt= 15.02): time 2022-11-11_00:26:40 on domain   3:    0.15019 elapsed seconds
Timing for main (dt= 15.02): time 2022-11-11_00:26:55 on domain   3:    0.14945 elapsed seconds
Timing for main (dt= 45.07): time 2022-11-11_00:26:55 on domain   2:    0.85685 elapsed seconds
Timing for main (dt=135.21): time 2022-11-11_00:26:55 on domain   1:    3.02056 elapsed seconds
Timing for main (dt= 15.02): time 2022-11-11_00:27:10 on domain   3:    0.15782 elapsed seconds
Timing for main (dt= 15.02): time 2022-11-11_00:27:25 on domain   3:    0.14745 elapsed seconds
Timing for main (dt= 15.02): time 2022-11-11_00:27:40 on domain   3:    0.14995 elapsed seconds
Timing for main (dt= 45.07): time 2022-11-11_00:27:40 on domain   2:    1.16692 elapsed seconds
Timing for main (dt= 15.02): time 2022-11-11_00:27:55 on domain   3:    0.15532 elapsed seconds
Timing for main (dt= 15.02): time 2022-11-11_00:28:10 on domain   3:    0.15081 elapsed seconds
Timing for main (dt= 15.02): time 2022-11-11_00:28:25 on domain   3:    0.14872 elapsed seconds
Timing for main (dt= 45.07): time 2022-11-11_00:28:25 on domain   2:    0.85713 elapsed seconds
Timing for main (dt= 15.02): time 2022-11-11_00:28:40 on domain   3:    0.15599 elapsed seconds
Timing for main (dt= 15.02): time 2022-11-11_00:28:55 on domain   3:    0.15050 elapsed seconds
Timing for main (dt= 15.02): time 2022-11-11_00:29:10 on domain   3:    0.14926 elapsed seconds
Timing for main (dt= 45.07): time 2022-11-11_00:29:10 on domain   2:    0.85924 elapsed seconds
Timing for main (dt=135.21): time 2022-11-11_00:29:10 on domain   1:    3.15114 elapsed seconds
Timing for main (dt= 15.02): time 2022-11-11_00:29:25 on domain   3:    0.15779 elapsed seconds
Timing for main (dt= 15.02): time 2022-11-11_00:29:40 on domain   3:    0.14964 elapsed seconds
Timing for main (dt= 15.02): time 2022-11-11_00:29:55 on domain   3:    0.14806 elapsed seconds
Timing for main (dt= 45.07): time 2022-11-11_00:29:55 on domain   2:    0.86497 elapsed seconds
Timing for main (dt= 15.02): time 2022-11-11_00:30:10 on domain   3:    0.15618 elapsed seconds
Timing for main (dt= 15.02): time 2022-11-11_00:30:25 on domain   3:    0.14835 elapsed seconds
Timing for main (dt= 15.02): time 2022-11-11_00:30:40 on domain   3:    0.14963 elapsed seconds
Timing for main (dt= 45.07): time 2022-11-11_00:30:40 on domain   2:    0.85758 elapsed seconds
Timing for main (dt= 15.02): time 2022-11-11_00:30:55 on domain   3:    0.39223 elapsed seconds
Timing for main (dt= 15.02): time 2022-11-11_00:31:10 on domain   3:    0.15002 elapsed seconds
Timing for main (dt= 15.02): time 2022-11-11_00:31:25 on domain   3:    0.14875 elapsed seconds
Timing for main (dt= 45.07): time 2022-11-11_00:31:25 on domain   2:    1.09142 elapsed seconds
Timing for main (dt=135.21): time 2022-11-11_00:31:25 on domain   1:    3.02508 elapsed seconds
Timing for main (dt= 14.87): time 2022-11-11_00:31:40 on domain   3:    0.15559 elapsed seconds
Timing for main (dt= 14.87): time 2022-11-11_00:31:55 on domain   3:    0.14664 elapsed seconds
Timing for main (dt= 14.87): time 2022-11-11_00:32:10 on domain   3:    0.15176 elapsed seconds
Timing for main (dt= 44.62): time 2022-11-11_00:32:10 on domain   2:    0.86483 elapsed seconds
Timing for main (dt= 14.87): time 2022-11-11_00:32:25 on domain   3:    0.15670 elapsed seconds
Timing for main (dt= 14.87): time 2022-11-11_00:32:40 on domain   3:    0.15040 elapsed seconds
Timing for main (dt= 14.87): time 2022-11-11_00:32:54 on domain   3:    0.14875 elapsed seconds
Timing for main (dt= 44.62): time 2022-11-11_00:32:54 on domain   2:    1.15799 elapsed seconds
Timing for main (dt= 14.87): time 2022-11-11_00:33:09 on domain   3:    0.15601 elapsed seconds
Timing for main (dt= 14.87): time 2022-11-11_00:33:24 on domain   3:    0.14817 elapsed seconds
Timing for main (dt= 14.87): time 2022-11-11_00:33:39 on domain   3:    0.15078 elapsed seconds
Timing for main (dt= 44.62): time 2022-11-11_00:33:39 on domain   2:    0.85782 elapsed seconds
Timing for main (dt=133.86): time 2022-11-11_00:33:39 on domain   1:    3.09031 elapsed seconds
Timing for main (dt= 15.02): time 2022-11-11_00:33:54 on domain   3:    0.15796 elapsed seconds
Timing for main (dt= 15.02): time 2022-11-11_00:34:09 on domain   3:    0.14831 elapsed seconds
Timing for main (dt= 15.02): time 2022-11-11_00:34:24 on domain   3:    0.14916 elapsed seconds
Timing for main (dt= 45.07): time 2022-11-11_00:34:24 on domain   2:    0.86527 elapsed seconds
Timing for main (dt= 15.02): time 2022-11-11_00:34:39 on domain   3:    0.15486 elapsed seconds
Timing for main (dt= 15.02): time 2022-11-11_00:34:54 on domain   3:    0.15111 elapsed seconds
Timing for main (dt= 15.02): time 2022-11-11_00:35:09 on domain   3:    0.14842 elapsed seconds
Timing for main (dt= 45.07): time 2022-11-11_00:35:09 on domain   2:    0.85889 elapsed seconds
Timing for main (dt= 15.02): time 2022-11-11_00:35:24 on domain   3:    0.15548 elapsed seconds
Timing for main (dt= 15.02): time 2022-11-11_00:35:39 on domain   3:    0.14877 elapsed seconds
Timing for main (dt= 15.02): time 2022-11-11_00:35:54 on domain   3:    0.14837 elapsed seconds
Timing for main (dt= 45.07): time 2022-11-11_00:35:54 on domain   2:    0.85283 elapsed seconds
Timing for main (dt=135.20): time 2022-11-11_00:35:54 on domain   1:    2.84530 elapsed seconds
Timing for main (dt= 14.87): time 2022-11-11_00:36:09 on domain   3:    0.39189 elapsed seconds
Timing for main (dt= 14.87): time 2022-11-11_00:36:24 on domain   3:    0.14756 elapsed seconds
Timing for main (dt= 14.87): time 2022-11-11_00:36:39 on domain   3:    0.14805 elapsed seconds
Timing for main (dt= 44.62): time 2022-11-11_00:36:39 on domain   2:    1.09736 elapsed seconds
Timing for main (dt= 14.87): time 2022-11-11_00:36:54 on domain   3:    0.15664 elapsed seconds
Timing for main (dt= 14.87): time 2022-11-11_00:37:09 on domain   3:    0.14976 elapsed seconds
Timing for main (dt= 14.87): time 2022-11-11_00:37:23 on domain   3:    0.14982 elapsed seconds
Timing for main (dt= 44.62): time 2022-11-11_00:37:23 on domain   2:    0.85669 elapsed seconds
Timing for main (dt= 14.87): time 2022-11-11_00:37:38 on domain   3:    0.15617 elapsed seconds
Timing for main (dt= 14.87): time 2022-11-11_00:37:53 on domain   3:    0.15139 elapsed seconds
Timing for main (dt= 14.87): time 2022-11-11_00:38:08 on domain   3:    0.15230 elapsed seconds
Timing for main (dt= 44.62): time 2022-11-11_00:38:08 on domain   2:    1.16443 elapsed seconds
Timing for main (dt=133.85): time 2022-11-11_00:38:08 on domain   1:    3.32676 elapsed seconds
Timing for main (dt= 14.87): time 2022-11-11_00:38:23 on domain   3:    0.15598 elapsed seconds
Timing for main (dt= 14.87): time 2022-11-11_00:38:38 on domain   3:    0.14872 elapsed seconds
Timing for main (dt= 14.87): time 2022-11-11_00:38:53 on domain   3:    0.14883 elapsed seconds
Timing for main (dt= 44.62): time 2022-11-11_00:38:53 on domain   2:    0.86075 elapsed seconds
Timing for main (dt= 14.87): time 2022-11-11_00:39:08 on domain   3:    0.15667 elapsed seconds
Timing for main (dt= 14.87): time 2022-11-11_00:39:22 on domain   3:    0.15010 elapsed seconds
Timing for main (dt= 14.87): time 2022-11-11_00:39:37 on domain   3:    0.14788 elapsed seconds
Timing for main (dt= 44.62): time 2022-11-11_00:39:37 on domain   2:    0.85967 elapsed seconds
Timing for main (dt= 14.87): time 2022-11-11_00:39:52 on domain   3:    0.15577 elapsed seconds
Timing for main (dt= 14.87): time 2022-11-11_00:40:07 on domain   3:    0.15011 elapsed seconds
Timing for main (dt= 14.87): time 2022-11-11_00:40:22 on domain   3:    0.14967 elapsed seconds
Timing for main (dt= 44.62): time 2022-11-11_00:40:22 on domain   2:    0.85902 elapsed seconds
Timing for main (dt=133.85): time 2022-11-11_00:40:22 on domain   1:    2.79102 elapsed seconds
Timing for main (dt= 14.87): time 2022-11-11_00:40:37 on domain   3:    0.15727 elapsed seconds
Timing for main (dt= 14.87): time 2022-11-11_00:40:52 on domain   3:    0.14962 elapsed seconds
Timing for main (dt= 14.87): time 2022-11-11_00:41:07 on domain   3:    0.15071 elapsed seconds
Timing for main (dt= 44.62): time 2022-11-11_00:41:07 on domain   2:    0.87446 elapsed seconds
Timing for main (dt= 14.87): time 2022-11-11_00:41:21 on domain   3:    0.39752 elapsed seconds
Timing for main (dt= 14.87): time 2022-11-11_00:41:36 on domain   3:    0.14643 elapsed seconds
Timing for main (dt= 14.87): time 2022-11-11_00:41:51 on domain   3:    0.14843 elapsed seconds
Timing for main (dt= 44.62): time 2022-11-11_00:41:51 on domain   2:    1.09457 elapsed seconds
Timing for main (dt= 14.87): time 2022-11-11_00:42:06 on domain   3:    0.15668 elapsed seconds
Timing for main (dt= 14.87): time 2022-11-11_00:42:21 on domain   3:    0.15164 elapsed seconds
Timing for main (dt= 14.87): time 2022-11-11_00:42:36 on domain   3:    0.14824 elapsed seconds
Timing for main (dt= 44.62): time 2022-11-11_00:42:36 on domain   2:    0.86180 elapsed seconds
Timing for main (dt=133.85): time 2022-11-11_00:42:36 on domain   1:    3.09726 elapsed seconds
Timing for main (dt= 14.87): time 2022-11-11_00:42:51 on domain   3:    0.15661 elapsed seconds
Timing for main (dt= 14.87): time 2022-11-11_00:43:06 on domain   3:    0.14893 elapsed seconds
Timing for main (dt= 14.87): time 2022-11-11_00:43:20 on domain   3:    0.15201 elapsed seconds
Timing for main (dt= 44.62): time 2022-11-11_00:43:20 on domain   2:    1.17525 elapsed seconds
Timing for main (dt= 14.87): time 2022-11-11_00:43:35 on domain   3:    0.15518 elapsed seconds
Timing for main (dt= 14.87): time 2022-11-11_00:43:50 on domain   3:    0.14943 elapsed seconds
Timing for main (dt= 14.87): time 2022-11-11_00:44:05 on domain   3:    0.14907 elapsed seconds
Timing for main (dt= 44.62): time 2022-11-11_00:44:05 on domain   2:    0.85628 elapsed seconds
Timing for main (dt= 14.87): time 2022-11-11_00:44:20 on domain   3:    0.15759 elapsed seconds
Timing for main (dt= 14.87): time 2022-11-11_00:44:35 on domain   3:    0.14835 elapsed seconds
Timing for main (dt= 14.87): time 2022-11-11_00:44:50 on domain   3:    0.14965 elapsed seconds
Timing for main (dt= 44.62): time 2022-11-11_00:44:50 on domain   2:    0.86541 elapsed seconds
Timing for main (dt=133.85): time 2022-11-11_00:44:50 on domain   1:    3.10719 elapsed seconds
Timing for main (dt= 14.87): time 2022-11-11_00:45:04 on domain   3:    0.15800 elapsed seconds
Timing for main (dt= 14.87): time 2022-11-11_00:45:19 on domain   3:    0.14815 elapsed seconds
Timing for main (dt= 14.87): time 2022-11-11_00:45:34 on domain   3:    0.14957 elapsed seconds
Timing for main (dt= 44.62): time 2022-11-11_00:45:34 on domain   2:    0.86866 elapsed seconds
Timing for main (dt= 14.87): time 2022-11-11_00:45:49 on domain   3:    0.15733 elapsed seconds
Timing for main (dt= 14.87): time 2022-11-11_00:46:04 on domain   3:    0.15126 elapsed seconds
Timing for main (dt= 14.87): time 2022-11-11_00:46:19 on domain   3:    0.14902 elapsed seconds
Timing for main (dt= 44.62): time 2022-11-11_00:46:19 on domain   2:    0.86350 elapsed seconds
Timing for main (dt= 14.87): time 2022-11-11_00:46:34 on domain   3:    0.41267 elapsed seconds
Timing for main (dt= 14.87): time 2022-11-11_00:46:49 on domain   3:    0.14781 elapsed seconds
Timing for main (dt= 14.87): time 2022-11-11_00:47:03 on domain   3:    0.14844 elapsed seconds
Timing for main (dt= 44.62): time 2022-11-11_00:47:03 on domain   2:    1.11420 elapsed seconds
Timing for main (dt=133.85): time 2022-11-11_00:47:03 on domain   1:    3.05955 elapsed seconds
Timing for main (dt= 14.87): time 2022-11-11_00:47:18 on domain   3:    0.15636 elapsed seconds
Timing for main (dt= 14.87): time 2022-11-11_00:47:33 on domain   3:    0.14846 elapsed seconds
Timing for main (dt= 14.87): time 2022-11-11_00:47:48 on domain   3:    0.14944 elapsed seconds
Timing for main (dt= 44.62): time 2022-11-11_00:47:48 on domain   2:    0.86268 elapsed seconds
Timing for main (dt= 14.87): time 2022-11-11_00:48:03 on domain   3:    0.15666 elapsed seconds
Timing for main (dt= 14.87): time 2022-11-11_00:48:18 on domain   3:    0.14840 elapsed seconds
Timing for main (dt= 14.87): time 2022-11-11_00:48:33 on domain   3:    0.14974 elapsed seconds
Timing for main (dt= 44.62): time 2022-11-11_00:48:33 on domain   2:    1.15755 elapsed seconds
Timing for main (dt= 14.87): time 2022-11-11_00:48:48 on domain   3:    0.15575 elapsed seconds
Timing for main (dt= 14.87): time 2022-11-11_00:49:02 on domain   3:    0.15089 elapsed seconds
Timing for main (dt= 14.87): time 2022-11-11_00:49:17 on domain   3:    0.14736 elapsed seconds
Timing for main (dt= 44.62): time 2022-11-11_00:49:17 on domain   2:    0.85911 elapsed seconds
Timing for main (dt=133.85): time 2022-11-11_00:49:17 on domain   1:    3.15127 elapsed seconds
Timing for main (dt= 14.87): time 2022-11-11_00:49:32 on domain   3:    0.15646 elapsed seconds
Timing for main (dt= 14.87): time 2022-11-11_00:49:47 on domain   3:    0.14864 elapsed seconds
Timing for main (dt= 14.87): time 2022-11-11_00:50:02 on domain   3:    0.14994 elapsed seconds
Timing for main (dt= 44.62): time 2022-11-11_00:50:02 on domain   2:    0.87182 elapsed seconds
Timing for main (dt= 14.87): time 2022-11-11_00:50:17 on domain   3:    0.15271 elapsed seconds
Timing for main (dt= 14.87): time 2022-11-11_00:50:32 on domain   3:    0.15015 elapsed seconds
Timing for main (dt= 14.87): time 2022-11-11_00:50:47 on domain   3:    0.15060 elapsed seconds
Timing for main (dt= 44.62): time 2022-11-11_00:50:47 on domain   2:    0.85769 elapsed seconds
Timing for main (dt= 14.87): time 2022-11-11_00:51:01 on domain   3:    0.15556 elapsed seconds
Timing for main (dt= 14.87): time 2022-11-11_00:51:16 on domain   3:    0.14983 elapsed seconds
Timing for main (dt= 14.87): time 2022-11-11_00:51:31 on domain   3:    0.14885 elapsed seconds
Timing for main (dt= 44.62): time 2022-11-11_00:51:31 on domain   2:    0.86184 elapsed seconds
Timing for main (dt=133.85): time 2022-11-11_00:51:31 on domain   1:    2.80227 elapsed seconds
Timing for main (dt= 14.87): time 2022-11-11_00:51:46 on domain   3:    0.41355 elapsed seconds
Timing for main (dt= 14.87): time 2022-11-11_00:52:01 on domain   3:    0.14875 elapsed seconds
Timing for main (dt= 14.87): time 2022-11-11_00:52:16 on domain   3:    0.14773 elapsed seconds
Timing for main (dt= 44.62): time 2022-11-11_00:52:16 on domain   2:    1.12072 elapsed seconds
Timing for main (dt= 14.87): time 2022-11-11_00:52:31 on domain   3:    0.15685 elapsed seconds
Timing for main (dt= 14.87): time 2022-11-11_00:52:46 on domain   3:    0.15008 elapsed seconds
Timing for main (dt= 14.87): time 2022-11-11_00:53:00 on domain   3:    0.14996 elapsed seconds
Timing for main (dt= 44.62): time 2022-11-11_00:53:00 on domain   2:    0.86065 elapsed seconds
Timing for main (dt= 14.87): time 2022-11-11_00:53:15 on domain   3:    0.15539 elapsed seconds
Timing for main (dt= 14.87): time 2022-11-11_00:53:30 on domain   3:    0.14958 elapsed seconds
Timing for main (dt= 14.87): time 2022-11-11_00:53:45 on domain   3:    0.14999 elapsed seconds
Timing for main (dt= 44.62): time 2022-11-11_00:53:45 on domain   2:    1.15933 elapsed seconds
Timing for main (dt=133.85): time 2022-11-11_00:53:45 on domain   1:    3.35211 elapsed seconds
Timing for main (dt= 14.87): time 2022-11-11_00:54:00 on domain   3:    0.15676 elapsed seconds
Timing for main (dt= 14.87): time 2022-11-11_00:54:15 on domain   3:    0.14666 elapsed seconds
Timing for main (dt= 14.87): time 2022-11-11_00:54:30 on domain   3:    0.15215 elapsed seconds
Timing for main (dt= 44.62): time 2022-11-11_00:54:30 on domain   2:    0.86823 elapsed seconds
Timing for main (dt= 14.87): time 2022-11-11_00:54:44 on domain   3:    0.15587 elapsed seconds
Timing for main (dt= 14.87): time 2022-11-11_00:54:59 on domain   3:    0.14836 elapsed seconds
Timing for main (dt= 14.87): time 2022-11-11_00:55:14 on domain   3:    0.15353 elapsed seconds
Timing for main (dt= 44.62): time 2022-11-11_00:55:14 on domain   2:    0.86282 elapsed seconds
Timing for main (dt= 14.87): time 2022-11-11_00:55:29 on domain   3:    0.15784 elapsed seconds
Timing for main (dt= 14.87): time 2022-11-11_00:55:44 on domain   3:    0.14970 elapsed seconds
Timing for main (dt= 14.87): time 2022-11-11_00:55:59 on domain   3:    0.14888 elapsed seconds
Timing for main (dt= 44.62): time 2022-11-11_00:55:59 on domain   2:    0.86627 elapsed seconds
Timing for main (dt=133.85): time 2022-11-11_00:55:59 on domain   1:    2.86211 elapsed seconds
Timing for main (dt= 14.87): time 2022-11-11_00:56:14 on domain   3:    0.15930 elapsed seconds
Timing for main (dt= 14.87): time 2022-11-11_00:56:29 on domain   3:    0.14772 elapsed seconds
Timing for main (dt= 14.87): time 2022-11-11_00:56:43 on domain   3:    0.14909 elapsed seconds
Timing for main (dt= 44.62): time 2022-11-11_00:56:43 on domain   2:    0.87250 elapsed seconds
Timing for main (dt= 14.87): time 2022-11-11_00:56:58 on domain   3:    0.41299 elapsed seconds
Timing for main (dt= 14.87): time 2022-11-11_00:57:13 on domain   3:    0.14841 elapsed seconds
Timing for main (dt= 14.87): time 2022-11-11_00:57:28 on domain   3:    0.14878 elapsed seconds
Timing for main (dt= 44.62): time 2022-11-11_00:57:28 on domain   2:    1.11426 elapsed seconds
Timing for main (dt= 14.87): time 2022-11-11_00:57:43 on domain   3:    0.15581 elapsed seconds
Timing for main (dt= 14.87): time 2022-11-11_00:57:58 on domain   3:    0.14709 elapsed seconds
Timing for main (dt= 14.87): time 2022-11-11_00:58:13 on domain   3:    0.15155 elapsed seconds
Timing for main (dt= 44.62): time 2022-11-11_00:58:13 on domain   2:    0.86546 elapsed seconds
Timing for main (dt=133.85): time 2022-11-11_00:58:13 on domain   1:    3.06191 elapsed seconds
Timing for main (dt= 14.87): time 2022-11-11_00:58:28 on domain   3:    0.15731 elapsed seconds
Timing for main (dt= 14.87): time 2022-11-11_00:58:42 on domain   3:    0.14946 elapsed seconds
Timing for main (dt= 14.87): time 2022-11-11_00:58:57 on domain   3:    0.14867 elapsed seconds
Timing for main (dt= 44.62): time 2022-11-11_00:58:57 on domain   2:    1.17855 elapsed seconds
Timing for main (dt= 14.87): time 2022-11-11_00:59:12 on domain   3:    0.15765 elapsed seconds
Timing for main (dt= 14.87): time 2022-11-11_00:59:27 on domain   3:    0.14823 elapsed seconds
Timing for main (dt= 14.87): time 2022-11-11_00:59:42 on domain   3:    0.14825 elapsed seconds
Timing for main (dt= 44.62): time 2022-11-11_00:59:42 on domain   2:    0.86023 elapsed seconds
Timing for main (dt= 14.87): time 2022-11-11_00:59:57 on domain   3:    0.15545 elapsed seconds
Timing for main (dt= 14.87): time 2022-11-11_01:00:12 on domain   3:    0.14808 elapsed seconds
 W A R N I N G : Problem opening wrf_var.txt
 W A R N I N G : Problem opening wrf_var.txt
Timing for Writing wrfout_d03_2022-11-11_01:00:00 for domain        3:    0.13536 elapsed seconds
 W A R N I N G : Problem opening wrf_var.txt
 W A R N I N G : Problem opening wrf_var.txt
Timing for Writing auxhist23_d03_2022-11-11_01:00:00 for domain        3:    0.00765 elapsed seconds
Timing for main (dt= 14.87): time 2022-11-11_01:00:27 on domain   3:    0.46393 elapsed seconds
Timing for main (dt= 44.62): time 2022-11-11_01:00:27 on domain   2:    1.17903 elapsed seconds
Timing for main (dt=133.85): time 2022-11-11_01:00:27 on domain   1:    3.43130 elapsed seconds
 W A R N I N G : Problem opening wrf_var.txt
d01 2022-11-11_01:00:27+03/50  Input data is acceptable to use: wrfbdy_d01
Timing for processing lateral boundary for domain        1:    0.19948 elapsed seconds
Timing for main (dt= 14.87): time 2022-11-11_01:00:41 on domain   3:    0.15852 elapsed seconds
Timing for main (dt= 14.87): time 2022-11-11_01:00:56 on domain   3:    0.14844 elapsed seconds
Timing for main (dt= 14.87): time 2022-11-11_01:01:11 on domain   3:    0.15107 elapsed seconds
Timing for main (dt= 44.62): time 2022-11-11_01:01:11 on domain   2:    0.87072 elapsed seconds
Timing for main (dt= 14.87): time 2022-11-11_01:01:26 on domain   3:    0.15655 elapsed seconds
Timing for main (dt= 14.87): time 2022-11-11_01:01:41 on domain   3:    0.14940 elapsed seconds
Timing for main (dt= 14.87): time 2022-11-11_01:01:56 on domain   3:    0.14853 elapsed seconds
Timing for main (dt= 44.62): time 2022-11-11_01:01:56 on domain   2:    0.86192 elapsed seconds
Timing for main (dt= 14.87): time 2022-11-11_01:02:11 on domain   3:    0.41896 elapsed seconds
Timing for main (dt= 14.87): time 2022-11-11_01:02:26 on domain   3:    0.14884 elapsed seconds
Timing for main (dt= 14.87): time 2022-11-11_01:02:40 on domain   3:    0.14897 elapsed seconds
Timing for main (dt= 44.62): time 2022-11-11_01:02:40 on domain   2:    1.11957 elapsed seconds
Timing for main (dt=133.85): time 2022-11-11_01:02:40 on domain   1:    3.31309 elapsed seconds
Timing for main (dt= 14.72): time 2022-11-11_01:02:55 on domain   3:    0.15629 elapsed seconds
Timing for main (dt= 14.72): time 2022-11-11_01:03:10 on domain   3:    0.14929 elapsed seconds
Timing for main (dt= 14.72): time 2022-11-11_01:03:25 on domain   3:    0.14921 elapsed seconds
Timing for main (dt= 44.17): time 2022-11-11_01:03:25 on domain   2:    0.86996 elapsed seconds
Timing for main (dt= 14.72): time 2022-11-11_01:03:39 on domain   3:    0.15445 elapsed seconds
Timing for main (dt= 14.72): time 2022-11-11_01:03:54 on domain   3:    0.15043 elapsed seconds
Timing for main (dt= 14.72): time 2022-11-11_01:04:09 on domain   3:    0.14798 elapsed seconds
Timing for main (dt= 44.17): time 2022-11-11_01:04:09 on domain   2:    1.15715 elapsed seconds
Timing for main (dt= 14.72): time 2022-11-11_01:04:23 on domain   3:    0.15725 elapsed seconds
Timing for main (dt= 14.72): time 2022-11-11_01:04:38 on domain   3:    0.14925 elapsed seconds
Timing for main (dt= 14.72): time 2022-11-11_01:04:53 on domain   3:    0.14952 elapsed seconds
Timing for main (dt= 44.17): time 2022-11-11_01:04:53 on domain   2:    0.86401 elapsed seconds
Timing for main (dt=132.51): time 2022-11-11_01:04:53 on domain   1:    3.10067 elapsed seconds
Timing for main (dt= 15.02): time 2022-11-11_01:05:08 on domain   3:    0.15563 elapsed seconds
Timing for main (dt= 15.02): time 2022-11-11_01:05:23 on domain   3:    0.14987 elapsed seconds
Timing for main (dt= 15.02): time 2022-11-11_01:05:38 on domain   3:    0.14937 elapsed seconds
Timing for main (dt= 45.05): time 2022-11-11_01:05:38 on domain   2:    0.87453 elapsed seconds
Timing for main (dt= 15.02): time 2022-11-11_01:05:53 on domain   3:    0.15625 elapsed seconds
Timing for main (dt= 15.02): time 2022-11-11_01:06:08 on domain   3:    0.14820 elapsed seconds
Timing for main (dt= 15.02): time 2022-11-11_01:06:23 on domain   3:    0.14810 elapsed seconds
Timing for main (dt= 45.05): time 2022-11-11_01:06:23 on domain   2:    0.86070 elapsed seconds
Timing for main (dt= 15.02): time 2022-11-11_01:06:38 on domain   3:    0.15599 elapsed seconds
Timing for main (dt= 15.02): time 2022-11-11_01:06:53 on domain   3:    0.14879 elapsed seconds
Timing for main (dt= 15.02): time 2022-11-11_01:07:08 on domain   3:    0.15130 elapsed seconds
Timing for main (dt= 45.05): time 2022-11-11_01:07:08 on domain   2:    0.86756 elapsed seconds
Timing for main (dt=135.16): time 2022-11-11_01:07:08 on domain   1:    2.81555 elapsed seconds
Timing for main (dt= 15.02): time 2022-11-11_01:07:23 on domain   3:    0.41925 elapsed seconds
Timing for main (dt= 15.02): time 2022-11-11_01:07:38 on domain   3:    0.14703 elapsed seconds
Timing for main (dt= 15.02): time 2022-11-11_01:07:53 on domain   3:    0.15296 elapsed seconds
Timing for main (dt= 45.05): time 2022-11-11_01:07:53 on domain   2:    1.12492 elapsed seconds
Timing for main (dt= 15.02): time 2022-11-11_01:08:08 on domain   3:    0.15671 elapsed seconds
Timing for main (dt= 15.02): time 2022-11-11_01:08:23 on domain   3:    0.14859 elapsed seconds
Timing for main (dt= 15.02): time 2022-11-11_01:08:38 on domain   3:    0.14749 elapsed seconds
Timing for main (dt= 45.05): time 2022-11-11_01:08:38 on domain   2:    0.85974 elapsed seconds
Timing for main (dt= 15.02): time 2022-11-11_01:08:53 on domain   3:    0.15687 elapsed seconds
Timing for main (dt= 15.02): time 2022-11-11_01:09:08 on domain   3:    0.15190 elapsed seconds
Timing for main (dt= 15.02): time 2022-11-11_01:09:23 on domain   3:    0.14811 elapsed seconds
Timing for main (dt= 45.05): time 2022-11-11_01:09:23 on domain   2:    1.16399 elapsed seconds
Timing for main (dt=135.16): time 2022-11-11_01:09:23 on domain   1:    3.41288 elapsed seconds
Timing for main (dt= 15.17): time 2022-11-11_01:09:38 on domain   3:    0.15483 elapsed seconds
Timing for main (dt= 15.17): time 2022-11-11_01:09:54 on domain   3:    0.15037 elapsed seconds
Timing for main (dt= 15.17): time 2022-11-11_01:10:09 on domain   3:    0.15007 elapsed seconds
Timing for main (dt= 45.50): time 2022-11-11_01:10:09 on domain   2:    0.87166 elapsed seconds
Timing for main (dt= 15.17): time 2022-11-11_01:10:24 on domain   3:    0.15428 elapsed seconds
Timing for main (dt= 15.17): time 2022-11-11_01:10:39 on domain   3:    0.14956 elapsed seconds
Timing for main (dt= 15.17): time 2022-11-11_01:10:54 on domain   3:    0.14894 elapsed seconds
Timing for main (dt= 45.50): time 2022-11-11_01:10:54 on domain   2:    0.85892 elapsed seconds
Timing for main (dt= 15.17): time 2022-11-11_01:11:09 on domain   3:    0.15618 elapsed seconds
Timing for main (dt= 15.17): time 2022-11-11_01:11:25 on domain   3:    0.14874 elapsed seconds
Timing for main (dt= 15.17): time 2022-11-11_01:11:40 on domain   3:    0.15032 elapsed seconds
Timing for main (dt= 45.50): time 2022-11-11_01:11:40 on domain   2:    0.86357 elapsed seconds
Timing for main (dt=136.51): time 2022-11-11_01:11:40 on domain   1:    2.80578 elapsed seconds
Timing for main (dt= 15.17): time 2022-11-11_01:11:55 on domain   3:    0.15469 elapsed seconds
Timing for main (dt= 15.17): time 2022-11-11_01:12:10 on domain   3:    0.14966 elapsed seconds
Timing for main (dt= 15.17): time 2022-11-11_01:12:25 on domain   3:    0.38615 elapsed seconds
Timing for main (dt= 45.50): time 2022-11-11_01:12:25 on domain   2:    1.10764 elapsed seconds
Timing for main (dt= 15.17): time 2022-11-11_01:12:40 on domain   3:    0.15632 elapsed seconds
Timing for main (dt= 15.17): time 2022-11-11_01:12:56 on domain   3:    0.14772 elapsed seconds
Timing for main (dt= 15.17): time 2022-11-11_01:13:11 on domain   3:    0.14937 elapsed seconds
Timing for main (dt= 45.50): time 2022-11-11_01:13:11 on domain   2:    0.86142 elapsed seconds
Timing for main (dt= 15.17): time 2022-11-11_01:13:26 on domain   3:    0.15647 elapsed seconds
Timing for main (dt= 15.17): time 2022-11-11_01:13:41 on domain   3:    0.14777 elapsed seconds
Timing for main (dt= 15.17): time 2022-11-11_01:13:56 on domain   3:    0.14780 elapsed seconds
Timing for main (dt= 45.50): time 2022-11-11_01:13:56 on domain   2:    0.86730 elapsed seconds
Timing for main (dt=136.51): time 2022-11-11_01:13:56 on domain   1:    3.04590 elapsed seconds
Timing for main (dt= 15.17): time 2022-11-11_01:14:11 on domain   3:    0.15545 elapsed seconds
Timing for main (dt= 15.17): time 2022-11-11_01:14:27 on domain   3:    0.14858 elapsed seconds
Timing for main (dt= 15.17): time 2022-11-11_01:14:42 on domain   3:    0.15095 elapsed seconds
Timing for main (dt= 45.50): time 2022-11-11_01:14:42 on domain   2:    1.17260 elapsed seconds
Timing for main (dt= 15.17): time 2022-11-11_01:14:57 on domain   3:    0.15544 elapsed seconds
Timing for main (dt= 15.17): time 2022-11-11_01:15:12 on domain   3:    0.15009 elapsed seconds
Timing for main (dt= 15.17): time 2022-11-11_01:15:27 on domain   3:    0.14877 elapsed seconds
Timing for main (dt= 45.50): time 2022-11-11_01:15:27 on domain   2:    0.86220 elapsed seconds
Timing for main (dt= 15.17): time 2022-11-11_01:15:42 on domain   3:    0.15588 elapsed seconds
Timing for main (dt= 15.17): time 2022-11-11_01:15:58 on domain   3:    0.14763 elapsed seconds
Timing for main (dt= 15.17): time 2022-11-11_01:16:13 on domain   3:    0.14921 elapsed seconds
Timing for main (dt= 45.50): time 2022-11-11_01:16:13 on domain   2:    0.86381 elapsed seconds
Timing for main (dt=136.51): time 2022-11-11_01:16:13 on domain   1:    3.16470 elapsed seconds
Timing for main (dt= 15.17): time 2022-11-11_01:16:28 on domain   3:    0.15685 elapsed seconds
Timing for main (dt= 15.17): time 2022-11-11_01:16:43 on domain   3:    0.14833 elapsed seconds
Timing for main (dt= 15.17): time 2022-11-11_01:16:58 on domain   3:    0.14846 elapsed seconds
Timing for main (dt= 45.50): time 2022-11-11_01:16:58 on domain   2:    0.86895 elapsed seconds
Timing for main (dt= 15.17): time 2022-11-11_01:17:13 on domain   3:    0.15643 elapsed seconds
Timing for main (dt= 15.17): time 2022-11-11_01:17:29 on domain   3:    0.40932 elapsed seconds
Timing for main (dt= 15.17): time 2022-11-11_01:17:44 on domain   3:    0.14765 elapsed seconds
Timing for main (dt= 45.50): time 2022-11-11_01:17:44 on domain   2:    1.12442 elapsed seconds
Timing for main (dt= 15.17): time 2022-11-11_01:17:59 on domain   3:    0.15400 elapsed seconds
Timing for main (dt= 15.17): time 2022-11-11_01:18:14 on domain   3:    0.14910 elapsed seconds
Timing for main (dt= 15.17): time 2022-11-11_01:18:29 on domain   3:    0.14986 elapsed seconds
Timing for main (dt= 45.50): time 2022-11-11_01:18:29 on domain   2:    0.86700 elapsed seconds
Timing for main (dt=136.51): time 2022-11-11_01:18:29 on domain   1:    3.07203 elapsed seconds
Timing for main (dt= 15.02): time 2022-11-11_01:18:44 on domain   3:    0.15796 elapsed seconds
Timing for main (dt= 15.02): time 2022-11-11_01:18:59 on domain   3:    0.14652 elapsed seconds
Timing for main (dt= 15.02): time 2022-11-11_01:19:14 on domain   3:    0.15089 elapsed seconds
Timing for main (dt= 45.05): time 2022-11-11_01:19:14 on domain   2:    0.87130 elapsed seconds
Timing for main (dt= 15.02): time 2022-11-11_01:19:29 on domain   3:    0.15713 elapsed seconds
Timing for main (dt= 15.02): time 2022-11-11_01:19:44 on domain   3:    0.14932 elapsed seconds
Timing for main (dt= 15.02): time 2022-11-11_01:19:59 on domain   3:    0.14944 elapsed seconds
Timing for main (dt= 45.05): time 2022-11-11_01:19:59 on domain   2:    1.17576 elapsed seconds
Timing for main (dt= 15.02): time 2022-11-11_01:20:14 on domain   3:    0.15590 elapsed seconds
Timing for main (dt= 15.02): time 2022-11-11_01:20:29 on domain   3:    0.14941 elapsed seconds
Timing for main (dt= 15.02): time 2022-11-11_01:20:44 on domain   3:    0.14824 elapsed seconds
Timing for main (dt= 45.05): time 2022-11-11_01:20:44 on domain   2:    0.86615 elapsed seconds
Timing for main (dt=135.14): time 2022-11-11_01:20:44 on domain   1:    3.12499 elapsed seconds
Timing for main (dt= 15.02): time 2022-11-11_01:20:59 on domain   3:    0.15741 elapsed seconds
Timing for main (dt= 15.02): time 2022-11-11_01:21:14 on domain   3:    0.14860 elapsed seconds
Timing for main (dt= 15.02): time 2022-11-11_01:21:29 on domain   3:    0.14913 elapsed seconds
Timing for main (dt= 45.05): time 2022-11-11_01:21:29 on domain   2:    0.86894 elapsed seconds
Timing for main (dt= 15.02): time 2022-11-11_01:21:44 on domain   3:    0.15649 elapsed seconds
Timing for main (dt= 15.02): time 2022-11-11_01:21:59 on domain   3:    0.14940 elapsed seconds
Timing for main (dt= 15.02): time 2022-11-11_01:22:15 on domain   3:    0.14933 elapsed seconds
Timing for main (dt= 45.05): time 2022-11-11_01:22:15 on domain   2:    0.86612 elapsed seconds
Timing for main (dt= 15.02): time 2022-11-11_01:22:30 on domain   3:    0.41796 elapsed seconds
Timing for main (dt= 15.02): time 2022-11-11_01:22:45 on domain   3:    0.14895 elapsed seconds
Timing for main (dt= 15.02): time 2022-11-11_01:23:00 on domain   3:    0.14788 elapsed seconds
Timing for main (dt= 45.05): time 2022-11-11_01:23:00 on domain   2:    1.12829 elapsed seconds
Timing for main (dt=135.14): time 2022-11-11_01:23:00 on domain   1:    3.13258 elapsed seconds
Timing for main (dt= 14.87): time 2022-11-11_01:23:14 on domain   3:    0.15375 elapsed seconds
Timing for main (dt= 14.87): time 2022-11-11_01:23:29 on domain   3:    0.15046 elapsed seconds
Timing for main (dt= 14.87): time 2022-11-11_01:23:44 on domain   3:    0.14966 elapsed seconds
Timing for main (dt= 44.60): time 2022-11-11_01:23:44 on domain   2:    0.87237 elapsed seconds
Timing for main (dt= 14.87): time 2022-11-11_01:23:59 on domain   3:    0.15547 elapsed seconds
Timing for main (dt= 14.87): time 2022-11-11_01:24:14 on domain   3:    0.14978 elapsed seconds
Timing for main (dt= 14.87): time 2022-11-11_01:24:29 on domain   3:    0.14919 elapsed seconds
Timing for main (dt= 44.60): time 2022-11-11_01:24:29 on domain   2:    0.86585 elapsed seconds
Timing for main (dt= 14.87): time 2022-11-11_01:24:44 on domain   3:    0.15671 elapsed seconds
Timing for main (dt= 14.87): time 2022-11-11_01:24:58 on domain   3:    0.14820 elapsed seconds
Timing for main (dt= 14.87): time 2022-11-11_01:25:13 on domain   3:    0.14898 elapsed seconds
Timing for main (dt= 44.60): time 2022-11-11_01:25:13 on domain   2:    1.15828 elapsed seconds
Timing for main (dt=133.79): time 2022-11-11_01:25:13 on domain   1:    3.10902 elapsed seconds
Timing for main (dt= 14.72): time 2022-11-11_01:25:28 on domain   3:    0.15532 elapsed seconds
Timing for main (dt= 14.72): time 2022-11-11_01:25:43 on domain   3:    0.15142 elapsed seconds
Timing for main (dt= 14.72): time 2022-11-11_01:25:58 on domain   3:    0.14875 elapsed seconds
Timing for main (dt= 44.15): time 2022-11-11_01:25:58 on domain   2:    0.87475 elapsed seconds
Timing for main (dt= 14.72): time 2022-11-11_01:26:12 on domain   3:    0.15497 elapsed seconds
Timing for main (dt= 14.72): time 2022-11-11_01:26:27 on domain   3:    0.14899 elapsed seconds
Timing for main (dt= 14.72): time 2022-11-11_01:26:42 on domain   3:    0.14999 elapsed seconds
Timing for main (dt= 44.15): time 2022-11-11_01:26:42 on domain   2:    0.86801 elapsed seconds
Timing for main (dt= 14.72): time 2022-11-11_01:26:56 on domain   3:    0.15705 elapsed seconds
Timing for main (dt= 14.72): time 2022-11-11_01:27:11 on domain   3:    0.14762 elapsed seconds
Timing for main (dt= 14.72): time 2022-11-11_01:27:26 on domain   3:    0.15043 elapsed seconds
Timing for main (dt= 44.15): time 2022-11-11_01:27:26 on domain   2:    0.86628 elapsed seconds
Timing for main (dt=132.45): time 2022-11-11_01:27:26 on domain   1:    2.82199 elapsed seconds
Timing for main (dt= 14.57): time 2022-11-11_01:27:40 on domain   3:    0.41857 elapsed seconds
Timing for main (dt= 14.57): time 2022-11-11_01:27:55 on domain   3:    0.14736 elapsed seconds
Timing for main (dt= 14.57): time 2022-11-11_01:28:10 on domain   3:    0.14777 elapsed seconds
Timing for main (dt= 43.71): time 2022-11-11_01:28:10 on domain   2:    1.13683 elapsed seconds
Timing for main (dt= 14.57): time 2022-11-11_01:28:24 on domain   3:    0.15645 elapsed seconds
Timing for main (dt= 14.57): time 2022-11-11_01:28:39 on domain   3:    0.14746 elapsed seconds
Timing for main (dt= 14.57): time 2022-11-11_01:28:53 on domain   3:    0.14944 elapsed seconds
Timing for main (dt= 43.71): time 2022-11-11_01:28:53 on domain   2:    0.86703 elapsed seconds
Timing for main (dt= 14.57): time 2022-11-11_01:29:08 on domain   3:    0.15717 elapsed seconds
Timing for main (dt= 14.57): time 2022-11-11_01:29:22 on domain   3:    0.14912 elapsed seconds
Timing for main (dt= 14.57): time 2022-11-11_01:29:37 on domain   3:    0.14780 elapsed seconds
Timing for main (dt= 43.71): time 2022-11-11_01:29:37 on domain   2:    0.86871 elapsed seconds
Timing for main (dt=131.13): time 2022-11-11_01:29:37 on domain   1:    3.13694 elapsed seconds
Timing for main (dt= 14.57): time 2022-11-11_01:29:52 on domain   3:    0.15822 elapsed seconds
Timing for main (dt= 14.57): time 2022-11-11_01:30:06 on domain   3:    0.14916 elapsed seconds
Timing for main (dt= 14.57): time 2022-11-11_01:30:21 on domain   3:    0.14978 elapsed seconds
Timing for main (dt= 43.71): time 2022-11-11_01:30:21 on domain   2:    1.19029 elapsed seconds
Timing for main (dt= 14.57): time 2022-11-11_01:30:35 on domain   3:    0.15413 elapsed seconds
Timing for main (dt= 14.57): time 2022-11-11_01:30:50 on domain   3:    0.14955 elapsed seconds
Timing for main (dt= 14.57): time 2022-11-11_01:31:04 on domain   3:    0.14870 elapsed seconds
Timing for main (dt= 43.71): time 2022-11-11_01:31:04 on domain   2:    0.86918 elapsed seconds
Timing for main (dt= 14.57): time 2022-11-11_01:31:19 on domain   3:    0.15506 elapsed seconds
Timing for main (dt= 14.57): time 2022-11-11_01:31:33 on domain   3:    0.14843 elapsed seconds
Timing for main (dt= 14.57): time 2022-11-11_01:31:48 on domain   3:    0.14847 elapsed seconds
Timing for main (dt= 43.71): time 2022-11-11_01:31:48 on domain   2:    0.86167 elapsed seconds
Timing for main (dt=131.13): time 2022-11-11_01:31:48 on domain   1:    3.12992 elapsed seconds
Timing for main (dt= 14.42): time 2022-11-11_01:32:02 on domain   3:    0.15497 elapsed seconds
Timing for main (dt= 14.42): time 2022-11-11_01:32:17 on domain   3:    0.14843 elapsed seconds
Timing for main (dt= 14.42): time 2022-11-11_01:32:31 on domain   3:    0.14825 elapsed seconds
Timing for main (dt= 43.27): time 2022-11-11_01:32:31 on domain   2:    0.87305 elapsed seconds
Timing for main (dt= 14.42): time 2022-11-11_01:32:46 on domain   3:    0.39452 elapsed seconds
Timing for main (dt= 14.42): time 2022-11-11_01:33:00 on domain   3:    0.14773 elapsed seconds
Timing for main (dt= 14.42): time 2022-11-11_01:33:15 on domain   3:    0.14709 elapsed seconds
Timing for main (dt= 43.27): time 2022-11-11_01:33:15 on domain   2:    1.10267 elapsed seconds
Timing for main (dt= 14.42): time 2022-11-11_01:33:29 on domain   3:    0.15711 elapsed seconds
Timing for main (dt= 14.42): time 2022-11-11_01:33:43 on domain   3:    0.14854 elapsed seconds
Timing for main (dt= 14.42): time 2022-11-11_01:33:58 on domain   3:    0.14791 elapsed seconds
Timing for main (dt= 43.27): time 2022-11-11_01:33:58 on domain   2:    0.86772 elapsed seconds
Timing for main (dt=129.82): time 2022-11-11_01:33:58 on domain   1:    3.05312 elapsed seconds
Timing for main (dt= 14.28): time 2022-11-11_01:34:12 on domain   3:    0.15572 elapsed seconds
Timing for main (dt= 14.28): time 2022-11-11_01:34:26 on domain   3:    0.15102 elapsed seconds
Timing for main (dt= 14.28): time 2022-11-11_01:34:41 on domain   3:    0.14940 elapsed seconds
Timing for main (dt= 42.84): time 2022-11-11_01:34:41 on domain   2:    0.87554 elapsed seconds
Timing for main (dt= 14.28): time 2022-11-11_01:34:55 on domain   3:    0.15566 elapsed seconds
Timing for main (dt= 14.28): time 2022-11-11_01:35:09 on domain   3:    0.14917 elapsed seconds
Timing for main (dt= 14.28): time 2022-11-11_01:35:24 on domain   3:    0.15048 elapsed seconds
Timing for main (dt= 42.84): time 2022-11-11_01:35:24 on domain   2:    1.16784 elapsed seconds
Timing for main (dt= 14.28): time 2022-11-11_01:35:38 on domain   3:    0.15577 elapsed seconds
Timing for main (dt= 14.28): time 2022-11-11_01:35:52 on domain   3:    0.14946 elapsed seconds
Timing for main (dt= 14.28): time 2022-11-11_01:36:06 on domain   3:    0.15005 elapsed seconds
Timing for main (dt= 42.84): time 2022-11-11_01:36:06 on domain   2:    0.86645 elapsed seconds
Timing for main (dt=128.52): time 2022-11-11_01:36:06 on domain   1:    3.17777 elapsed seconds
Timing for main (dt= 14.28): time 2022-11-11_01:36:21 on domain   3:    0.15746 elapsed seconds
Timing for main (dt= 14.28): time 2022-11-11_01:36:35 on domain   3:    0.14946 elapsed seconds
Timing for main (dt= 14.28): time 2022-11-11_01:36:49 on domain   3:    0.14984 elapsed seconds
Timing for main (dt= 42.84): time 2022-11-11_01:36:49 on domain   2:    0.87238 elapsed seconds
Timing for main (dt= 14.28): time 2022-11-11_01:37:04 on domain   3:    0.15538 elapsed seconds
Timing for main (dt= 14.28): time 2022-11-11_01:37:18 on domain   3:    0.14842 elapsed seconds
Timing for main (dt= 14.28): time 2022-11-11_01:37:32 on domain   3:    0.14931 elapsed seconds
Timing for main (dt= 42.84): time 2022-11-11_01:37:32 on domain   2:    0.86381 elapsed seconds
Timing for main (dt= 14.28): time 2022-11-11_01:37:46 on domain   3:    0.41673 elapsed seconds
Timing for main (dt= 14.28): time 2022-11-11_01:38:01 on domain   3:    0.14829 elapsed seconds
Timing for main (dt= 14.28): time 2022-11-11_01:38:15 on domain   3:    0.14719 elapsed seconds
Timing for main (dt= 42.84): time 2022-11-11_01:38:15 on domain   2:    1.12338 elapsed seconds
Timing for main (dt=128.52): time 2022-11-11_01:38:15 on domain   1:    3.06932 elapsed seconds
Timing for main (dt= 14.14): time 2022-11-11_01:38:29 on domain   3:    0.15632 elapsed seconds
Timing for main (dt= 14.14): time 2022-11-11_01:38:43 on domain   3:    0.14865 elapsed seconds
Timing for main (dt= 14.14): time 2022-11-11_01:38:57 on domain   3:    0.14723 elapsed seconds
Timing for main (dt= 42.41): time 2022-11-11_01:38:57 on domain   2:    0.87529 elapsed seconds
Timing for main (dt= 14.14): time 2022-11-11_01:39:11 on domain   3:    0.15594 elapsed seconds
Timing for main (dt= 14.14): time 2022-11-11_01:39:26 on domain   3:    0.14942 elapsed seconds
Timing for main (dt= 14.14): time 2022-11-11_01:39:40 on domain   3:    0.14897 elapsed seconds
Timing for main (dt= 42.41): time 2022-11-11_01:39:40 on domain   2:    0.86971 elapsed seconds
Timing for main (dt= 14.14): time 2022-11-11_01:39:54 on domain   3:    0.15631 elapsed seconds
Timing for main (dt= 14.14): time 2022-11-11_01:40:08 on domain   3:    0.14909 elapsed seconds
Timing for main (dt= 14.14): time 2022-11-11_01:40:22 on domain   3:    0.14856 elapsed seconds
Timing for main (dt= 42.41): time 2022-11-11_01:40:22 on domain   2:    0.86737 elapsed seconds
Timing for main (dt=127.23): time 2022-11-11_01:40:22 on domain   1:    2.82513 elapsed seconds
Timing for main (dt= 14.00): time 2022-11-11_01:40:36 on domain   3:    0.15472 elapsed seconds
Timing for main (dt= 14.00): time 2022-11-11_01:40:50 on domain   3:    0.14892 elapsed seconds
Timing for main (dt= 14.00): time 2022-11-11_01:41:04 on domain   3:    0.15192 elapsed seconds
Timing for main (dt= 41.99): time 2022-11-11_01:41:04 on domain   2:    1.17735 elapsed seconds
Timing for main (dt= 14.00): time 2022-11-11_01:41:18 on domain   3:    0.15256 elapsed seconds
Timing for main (dt= 14.00): time 2022-11-11_01:41:32 on domain   3:    0.15072 elapsed seconds
Timing for main (dt= 14.00): time 2022-11-11_01:41:46 on domain   3:    0.15021 elapsed seconds
Timing for main (dt= 41.99): time 2022-11-11_01:41:46 on domain   2:    0.86801 elapsed seconds
Timing for main (dt= 14.00): time 2022-11-11_01:42:00 on domain   3:    0.15629 elapsed seconds
Timing for main (dt= 14.00): time 2022-11-11_01:42:14 on domain   3:    0.14937 elapsed seconds
Timing for main (dt= 14.00): time 2022-11-11_01:42:28 on domain   3:    0.15055 elapsed seconds
Timing for main (dt= 41.99): time 2022-11-11_01:42:28 on domain   2:    0.87248 elapsed seconds
Timing for main (dt=125.96): time 2022-11-11_01:42:28 on domain   1:    3.18474 elapsed seconds
Timing for main (dt= 13.86): time 2022-11-11_01:42:42 on domain   3:    0.15474 elapsed seconds
Timing for main (dt= 13.86): time 2022-11-11_01:42:56 on domain   3:    0.40464 elapsed seconds
Timing for main (dt= 13.86): time 2022-11-11_01:43:10 on domain   3:    0.14785 elapsed seconds
Timing for main (dt= 41.57): time 2022-11-11_01:43:10 on domain   2:    1.12406 elapsed seconds
Timing for main (dt= 13.86): time 2022-11-11_01:43:24 on domain   3:    0.15749 elapsed seconds
Timing for main (dt= 13.86): time 2022-11-11_01:43:37 on domain   3:    0.14794 elapsed seconds
Timing for main (dt= 13.86): time 2022-11-11_01:43:51 on domain   3:    0.14972 elapsed seconds
Timing for main (dt= 41.57): time 2022-11-11_01:43:51 on domain   2:    0.86509 elapsed seconds
Timing for main (dt= 13.86): time 2022-11-11_01:44:05 on domain   3:    0.15682 elapsed seconds
Timing for main (dt= 13.86): time 2022-11-11_01:44:19 on domain   3:    0.14644 elapsed seconds
Timing for main (dt= 13.86): time 2022-11-11_01:44:33 on domain   3:    0.15115 elapsed seconds
Timing for main (dt= 41.57): time 2022-11-11_01:44:33 on domain   2:    0.86720 elapsed seconds
Timing for main (dt=124.70): time 2022-11-11_01:44:33 on domain   1:    3.06699 elapsed seconds
Timing for main (dt= 13.86): time 2022-11-11_01:44:47 on domain   3:    0.15679 elapsed seconds
Timing for main (dt= 13.86): time 2022-11-11_01:45:01 on domain   3:    0.14982 elapsed seconds
Timing for main (dt= 13.86): time 2022-11-11_01:45:14 on domain   3:    0.14835 elapsed seconds
Timing for main (dt= 41.57): time 2022-11-11_01:45:14 on domain   2:    0.87425 elapsed seconds
Timing for main (dt= 13.86): time 2022-11-11_01:45:28 on domain   3:    0.15538 elapsed seconds
Timing for main (dt= 13.86): time 2022-11-11_01:45:42 on domain   3:    0.14930 elapsed seconds
Timing for main (dt= 13.86): time 2022-11-11_01:45:56 on domain   3:    0.14742 elapsed seconds
Timing for main (dt= 41.57): time 2022-11-11_01:45:56 on domain   2:    0.86634 elapsed seconds
Timing for main (dt= 13.86): time 2022-11-11_01:46:10 on domain   3:    0.15564 elapsed seconds
Timing for main (dt= 13.86): time 2022-11-11_01:46:24 on domain   3:    0.15010 elapsed seconds
Timing for main (dt= 13.86): time 2022-11-11_01:46:38 on domain   3:    0.14723 elapsed seconds
Timing for main (dt= 41.57): time 2022-11-11_01:46:38 on domain   2:    1.16674 elapsed seconds
Timing for main (dt=124.70): time 2022-11-11_01:46:38 on domain   1:    3.11662 elapsed seconds
Timing for main (dt= 13.72): time 2022-11-11_01:46:51 on domain   3:    0.15794 elapsed seconds
Timing for main (dt= 13.72): time 2022-11-11_01:47:05 on domain   3:    0.14890 elapsed seconds
Timing for main (dt= 13.72): time 2022-11-11_01:47:19 on domain   3:    0.14879 elapsed seconds
Timing for main (dt= 41.15): time 2022-11-11_01:47:19 on domain   2:    0.87241 elapsed seconds
Timing for main (dt= 13.72): time 2022-11-11_01:47:32 on domain   3:    0.15619 elapsed seconds
Timing for main (dt= 13.72): time 2022-11-11_01:47:46 on domain   3:    0.14800 elapsed seconds
Timing for main (dt= 13.72): time 2022-11-11_01:48:00 on domain   3:    0.38353 elapsed seconds
Timing for main (dt= 41.15): time 2022-11-11_01:48:00 on domain   2:    1.10203 elapsed seconds
Timing for main (dt= 13.72): time 2022-11-11_01:48:14 on domain   3:    0.15657 elapsed seconds
Timing for main (dt= 13.72): time 2022-11-11_01:48:27 on domain   3:    0.14900 elapsed seconds
Timing for main (dt= 13.72): time 2022-11-11_01:48:41 on domain   3:    0.15029 elapsed seconds
Timing for main (dt= 41.15): time 2022-11-11_01:48:41 on domain   2:    0.87212 elapsed seconds
Timing for main (dt=123.45): time 2022-11-11_01:48:41 on domain   1:    3.11737 elapsed seconds
Timing for main (dt= 13.58): time 2022-11-11_01:48:55 on domain   3:    0.15671 elapsed seconds
Timing for main (dt= 13.58): time 2022-11-11_01:49:08 on domain   3:    0.14966 elapsed seconds
Timing for main (dt= 13.58): time 2022-11-11_01:49:22 on domain   3:    0.14954 elapsed seconds
Timing for main (dt= 40.74): time 2022-11-11_01:49:22 on domain   2:    0.87523 elapsed seconds
Timing for main (dt= 13.58): time 2022-11-11_01:49:35 on domain   3:    0.15471 elapsed seconds
Timing for main (dt= 13.58): time 2022-11-11_01:49:49 on domain   3:    0.14818 elapsed seconds
Timing for main (dt= 13.58): time 2022-11-11_01:50:02 on domain   3:    0.14985 elapsed seconds
Timing for main (dt= 40.74): time 2022-11-11_01:50:02 on domain   2:    0.86523 elapsed seconds
Timing for main (dt= 13.58): time 2022-11-11_01:50:16 on domain   3:    0.15521 elapsed seconds
Timing for main (dt= 13.58): time 2022-11-11_01:50:30 on domain   3:    0.14935 elapsed seconds
Timing for main (dt= 13.58): time 2022-11-11_01:50:43 on domain   3:    0.14993 elapsed seconds
Timing for main (dt= 40.74): time 2022-11-11_01:50:43 on domain   2:    0.86777 elapsed seconds
Timing for main (dt=122.22): time 2022-11-11_01:50:43 on domain   1:    2.81560 elapsed seconds
Timing for main (dt= 13.58): time 2022-11-11_01:50:57 on domain   3:    0.15541 elapsed seconds
Timing for main (dt= 13.58): time 2022-11-11_01:51:10 on domain   3:    0.14886 elapsed seconds
Timing for main (dt= 13.58): time 2022-11-11_01:51:24 on domain   3:    0.14971 elapsed seconds
Timing for main (dt= 40.74): time 2022-11-11_01:51:24 on domain   2:    0.87266 elapsed seconds
Timing for main (dt= 13.58): time 2022-11-11_01:51:38 on domain   3:    0.15359 elapsed seconds
Timing for main (dt= 13.58): time 2022-11-11_01:51:51 on domain   3:    0.15148 elapsed seconds
[...]
Timing for main (dt= 17.54): time 2022-11-12_23:23:22 on domain   3:    0.20217 elapsed seconds
Timing for main (dt= 17.54): time 2022-11-12_23:23:40 on domain   3:    0.20850 elapsed seconds
Timing for main (dt= 17.54): time 2022-11-12_23:23:57 on domain   3:    0.20858 elapsed seconds
Timing for main (dt= 52.63): time 2022-11-12_23:23:57 on domain   2:    1.04072 elapsed seconds
Timing for main (dt= 17.54): time 2022-11-12_23:24:15 on domain   3:    0.20334 elapsed seconds
Timing for main (dt= 17.54): time 2022-11-12_23:24:33 on domain   3:    0.20928 elapsed seconds
Timing for main (dt= 17.54): time 2022-11-12_23:24:50 on domain   3:    0.20977 elapsed seconds
Timing for main (dt= 52.63): time 2022-11-12_23:24:50 on domain   2:    1.03202 elapsed seconds
Timing for main (dt=105.26): time 2022-11-12_23:24:50 on domain   1:    2.33663 elapsed seconds
Timing for main (dt= 18.42): time 2022-11-12_23:25:09 on domain   3:    0.20420 elapsed seconds
Timing for main (dt= 18.42): time 2022-11-12_23:25:27 on domain   3:    0.20951 elapsed seconds
Timing for main (dt= 18.42): time 2022-11-12_23:25:45 on domain   3:    0.20998 elapsed seconds
Timing for main (dt= 55.26): time 2022-11-12_23:25:45 on domain   2:    1.04862 elapsed seconds
Timing for main (dt= 18.42): time 2022-11-12_23:26:04 on domain   3:    0.20081 elapsed seconds
Timing for main (dt= 18.42): time 2022-11-12_23:26:22 on domain   3:    0.20677 elapsed seconds
Timing for main (dt= 18.42): time 2022-11-12_23:26:41 on domain   3:    0.20975 elapsed seconds
Timing for main (dt= 55.26): time 2022-11-12_23:26:41 on domain   2:    1.03844 elapsed seconds
Timing for main (dt=110.52): time 2022-11-12_23:26:41 on domain   1:    2.29652 elapsed seconds
Timing for main (dt= 19.34): time 2022-11-12_23:27:00 on domain   3:    0.20177 elapsed seconds
Timing for main (dt= 19.34): time 2022-11-12_23:27:19 on domain   3:    0.20806 elapsed seconds
Timing for main (dt= 19.34): time 2022-11-12_23:27:39 on domain   3:    0.20849 elapsed seconds
Timing for main (dt= 58.03): time 2022-11-12_23:27:39 on domain   2:    1.33420 elapsed seconds
Timing for main (dt= 19.34): time 2022-11-12_23:27:58 on domain   3:    0.45695 elapsed seconds
Timing for main (dt= 19.34): time 2022-11-12_23:28:17 on domain   3:    0.20884 elapsed seconds
Timing for main (dt= 19.34): time 2022-11-12_23:28:37 on domain   3:    0.20786 elapsed seconds
Timing for main (dt= 58.03): time 2022-11-12_23:28:37 on domain   2:    1.28913 elapsed seconds
Timing for main (dt=116.05): time 2022-11-12_23:28:37 on domain   1:    2.83340 elapsed seconds
Timing for main (dt= 13.54): time 2022-11-12_23:28:50 on domain   3:    0.19966 elapsed seconds
Timing for main (dt= 13.54): time 2022-11-12_23:29:04 on domain   3:    0.20500 elapsed seconds
Timing for main (dt= 13.54): time 2022-11-12_23:29:17 on domain   3:    0.20423 elapsed seconds
Timing for main (dt= 40.62): time 2022-11-12_23:29:17 on domain   2:    1.02777 elapsed seconds
Timing for main (dt= 13.54): time 2022-11-12_23:29:31 on domain   3:    0.20119 elapsed seconds
Timing for main (dt= 13.54): time 2022-11-12_23:29:44 on domain   3:    0.20373 elapsed seconds
Timing for main (dt= 13.54): time 2022-11-12_23:29:58 on domain   3:    0.20402 elapsed seconds
Timing for main (dt= 40.62): time 2022-11-12_23:29:58 on domain   2:    1.01980 elapsed seconds
Timing for main (dt= 13.54): time 2022-11-12_23:30:11 on domain   3:    0.20181 elapsed seconds
Timing for main (dt= 13.54): time 2022-11-12_23:30:25 on domain   3:    0.20408 elapsed seconds
Timing for main (dt= 13.54): time 2022-11-12_23:30:39 on domain   3:    0.20476 elapsed seconds
Timing for main (dt= 40.62): time 2022-11-12_23:30:39 on domain   2:    1.02287 elapsed seconds
Timing for main (dt=121.85): time 2022-11-12_23:30:39 on domain   1:    3.33279 elapsed seconds
Timing for main (dt= 14.22): time 2022-11-12_23:30:53 on domain   3:    0.20064 elapsed seconds
Timing for main (dt= 14.22): time 2022-11-12_23:31:07 on domain   3:    0.20517 elapsed seconds
Timing for main (dt= 14.22): time 2022-11-12_23:31:21 on domain   3:    0.20660 elapsed seconds
Timing for main (dt= 42.65): time 2022-11-12_23:31:21 on domain   2:    1.03375 elapsed seconds
Timing for main (dt= 14.22): time 2022-11-12_23:31:35 on domain   3:    0.19919 elapsed seconds
Timing for main (dt= 14.22): time 2022-11-12_23:31:50 on domain   3:    0.20441 elapsed seconds
Timing for main (dt= 14.22): time 2022-11-12_23:32:04 on domain   3:    0.20597 elapsed seconds
Timing for main (dt= 42.65): time 2022-11-12_23:32:04 on domain   2:    1.02085 elapsed seconds
Timing for main (dt= 14.22): time 2022-11-12_23:32:18 on domain   3:    0.19967 elapsed seconds
Timing for main (dt= 14.22): time 2022-11-12_23:32:32 on domain   3:    0.20430 elapsed seconds
Timing for main (dt= 14.22): time 2022-11-12_23:32:46 on domain   3:    0.20597 elapsed seconds
Timing for main (dt= 42.65): time 2022-11-12_23:32:46 on domain   2:    1.30695 elapsed seconds
Timing for main (dt=127.94): time 2022-11-12_23:32:46 on domain   1:    3.57079 elapsed seconds
Timing for main (dt= 14.93): time 2022-11-12_23:33:01 on domain   3:    0.44939 elapsed seconds
Timing for main (dt= 14.93): time 2022-11-12_23:33:16 on domain   3:    0.20331 elapsed seconds
Timing for main (dt= 14.93): time 2022-11-12_23:33:31 on domain   3:    0.20575 elapsed seconds
Timing for main (dt= 44.78): time 2022-11-12_23:33:31 on domain   2:    1.27904 elapsed seconds
Timing for main (dt= 14.93): time 2022-11-12_23:33:46 on domain   3:    0.20003 elapsed seconds
Timing for main (dt= 14.93): time 2022-11-12_23:34:01 on domain   3:    0.20423 elapsed seconds
Timing for main (dt= 14.93): time 2022-11-12_23:34:16 on domain   3:    0.20391 elapsed seconds
Timing for main (dt= 44.78): time 2022-11-12_23:34:16 on domain   2:    1.02000 elapsed seconds
Timing for main (dt= 14.93): time 2022-11-12_23:34:31 on domain   3:    0.20096 elapsed seconds
Timing for main (dt= 14.93): time 2022-11-12_23:34:46 on domain   3:    0.20319 elapsed seconds
Timing for main (dt= 14.93): time 2022-11-12_23:35:01 on domain   3:    0.20470 elapsed seconds
Timing for main (dt= 44.78): time 2022-11-12_23:35:01 on domain   2:    1.01878 elapsed seconds
Timing for main (dt=134.34): time 2022-11-12_23:35:01 on domain   1:    3.53279 elapsed seconds
Timing for main (dt= 15.67): time 2022-11-12_23:35:16 on domain   3:    0.19966 elapsed seconds
Timing for main (dt= 15.67): time 2022-11-12_23:35:32 on domain   3:    0.20241 elapsed seconds
Timing for main (dt= 15.67): time 2022-11-12_23:35:48 on domain   3:    0.20358 elapsed seconds
Timing for main (dt= 47.02): time 2022-11-12_23:35:48 on domain   2:    1.02209 elapsed seconds
Timing for main (dt= 15.67): time 2022-11-12_23:36:04 on domain   3:    0.20076 elapsed seconds
Timing for main (dt= 15.67): time 2022-11-12_23:36:19 on domain   3:    0.20272 elapsed seconds
Timing for main (dt= 15.67): time 2022-11-12_23:36:35 on domain   3:    0.20436 elapsed seconds
Timing for main (dt= 47.02): time 2022-11-12_23:36:35 on domain   2:    1.01680 elapsed seconds
Timing for main (dt= 15.67): time 2022-11-12_23:36:51 on domain   3:    0.20032 elapsed seconds
Timing for main (dt= 15.67): time 2022-11-12_23:37:06 on domain   3:    0.20281 elapsed seconds
Timing for main (dt= 15.67): time 2022-11-12_23:37:22 on domain   3:    0.20491 elapsed seconds
Timing for main (dt= 47.02): time 2022-11-12_23:37:22 on domain   2:    1.01662 elapsed seconds
Timing for main (dt=141.06): time 2022-11-12_23:37:22 on domain   1:    3.31888 elapsed seconds
Timing for main (dt= 19.28): time 2022-11-12_23:37:41 on domain   3:    0.20525 elapsed seconds
Timing for main (dt= 19.28): time 2022-11-12_23:38:00 on domain   3:    0.20996 elapsed seconds
Timing for main (dt= 19.28): time 2022-11-12_23:38:20 on domain   3:    0.45836 elapsed seconds
Timing for main (dt= 57.83): time 2022-11-12_23:38:20 on domain   2:    1.58619 elapsed seconds
Timing for main (dt= 19.28): time 2022-11-12_23:38:39 on domain   3:    0.20413 elapsed seconds
Timing for main (dt= 19.28): time 2022-11-12_23:38:58 on domain   3:    0.20864 elapsed seconds
Timing for main (dt= 19.28): time 2022-11-12_23:39:18 on domain   3:    0.20831 elapsed seconds
Timing for main (dt= 57.83): time 2022-11-12_23:39:18 on domain   2:    1.03288 elapsed seconds
Timing for main (dt=115.67): time 2022-11-12_23:39:18 on domain   1:    2.82906 elapsed seconds
Timing for main (dt= 13.49): time 2022-11-12_23:39:31 on domain   3:    0.20224 elapsed seconds
Timing for main (dt= 13.49): time 2022-11-12_23:39:45 on domain   3:    0.20533 elapsed seconds
Timing for main (dt= 13.49): time 2022-11-12_23:39:58 on domain   3:    0.20628 elapsed seconds
Timing for main (dt= 40.48): time 2022-11-12_23:39:58 on domain   2:    1.03287 elapsed seconds
Timing for main (dt= 13.49): time 2022-11-12_23:40:12 on domain   3:    0.20232 elapsed seconds
Timing for main (dt= 13.49): time 2022-11-12_23:40:25 on domain   3:    0.20444 elapsed seconds
Timing for main (dt= 13.49): time 2022-11-12_23:40:39 on domain   3:    0.20684 elapsed seconds
Timing for main (dt= 40.48): time 2022-11-12_23:40:39 on domain   2:    1.02536 elapsed seconds
Timing for main (dt= 13.49): time 2022-11-12_23:40:52 on domain   3:    0.20337 elapsed seconds
Timing for main (dt= 13.49): time 2022-11-12_23:41:05 on domain   3:    0.20560 elapsed seconds
Timing for main (dt= 13.49): time 2022-11-12_23:41:19 on domain   3:    0.20675 elapsed seconds
Timing for main (dt= 40.48): time 2022-11-12_23:41:19 on domain   2:    1.02583 elapsed seconds
Timing for main (dt=121.45): time 2022-11-12_23:41:19 on domain   1:    3.29413 elapsed seconds
Timing for main (dt= 14.17): time 2022-11-12_23:41:33 on domain   3:    0.20232 elapsed seconds
Timing for main (dt= 14.17): time 2022-11-12_23:41:47 on domain   3:    0.20528 elapsed seconds
Timing for main (dt= 14.17): time 2022-11-12_23:42:01 on domain   3:    0.20688 elapsed seconds
Timing for main (dt= 42.51): time 2022-11-12_23:42:01 on domain   2:    1.02878 elapsed seconds
Timing for main (dt= 14.17): time 2022-11-12_23:42:16 on domain   3:    0.20115 elapsed seconds
Timing for main (dt= 14.17): time 2022-11-12_23:42:30 on domain   3:    0.20432 elapsed seconds
Timing for main (dt= 14.17): time 2022-11-12_23:42:44 on domain   3:    0.20687 elapsed seconds
Timing for main (dt= 42.51): time 2022-11-12_23:42:44 on domain   2:    1.01989 elapsed seconds
Timing for main (dt= 14.17): time 2022-11-12_23:42:58 on domain   3:    0.20151 elapsed seconds
Timing for main (dt= 14.17): time 2022-11-12_23:43:12 on domain   3:    0.20543 elapsed seconds
Timing for main (dt= 14.17): time 2022-11-12_23:43:27 on domain   3:    0.46055 elapsed seconds
Timing for main (dt= 42.51): time 2022-11-12_23:43:27 on domain   2:    1.56877 elapsed seconds
Timing for main (dt=127.52): time 2022-11-12_23:43:27 on domain   1:    3.88337 elapsed seconds
Timing for main (dt= 14.88): time 2022-11-12_23:43:41 on domain   3:    0.20174 elapsed seconds
Timing for main (dt= 14.88): time 2022-11-12_23:43:56 on domain   3:    0.20375 elapsed seconds
Timing for main (dt= 14.88): time 2022-11-12_23:44:11 on domain   3:    0.20529 elapsed seconds
Timing for main (dt= 44.63): time 2022-11-12_23:44:11 on domain   2:    1.02669 elapsed seconds
Timing for main (dt= 14.88): time 2022-11-12_23:44:26 on domain   3:    0.20141 elapsed seconds
Timing for main (dt= 14.88): time 2022-11-12_23:44:41 on domain   3:    0.20426 elapsed seconds
Timing for main (dt= 14.88): time 2022-11-12_23:44:56 on domain   3:    0.20507 elapsed seconds
Timing for main (dt= 44.63): time 2022-11-12_23:44:56 on domain   2:    1.01743 elapsed seconds
Timing for main (dt= 14.88): time 2022-11-12_23:45:11 on domain   3:    0.20218 elapsed seconds
Timing for main (dt= 14.88): time 2022-11-12_23:45:26 on domain   3:    0.20364 elapsed seconds
Timing for main (dt= 14.88): time 2022-11-12_23:45:40 on domain   3:    0.20664 elapsed seconds
Timing for main (dt= 44.63): time 2022-11-12_23:45:40 on domain   2:    1.01931 elapsed seconds
Timing for main (dt=133.90): time 2022-11-12_23:45:40 on domain   1:    3.27398 elapsed seconds
Timing for main (dt= 15.47): time 2022-11-12_23:45:56 on domain   3:    0.20017 elapsed seconds
Timing for main (dt= 15.47): time 2022-11-12_23:46:11 on domain   3:    0.20301 elapsed seconds
Timing for main (dt= 15.47): time 2022-11-12_23:46:27 on domain   3:    0.20470 elapsed seconds
Timing for main (dt= 46.42): time 2022-11-12_23:46:27 on domain   2:    1.02172 elapsed seconds
Timing for main (dt= 15.47): time 2022-11-12_23:46:42 on domain   3:    0.20299 elapsed seconds
Timing for main (dt= 15.47): time 2022-11-12_23:46:58 on domain   3:    0.20253 elapsed seconds
Timing for main (dt= 15.47): time 2022-11-12_23:47:13 on domain   3:    0.20249 elapsed seconds
Timing for main (dt= 46.42): time 2022-11-12_23:47:13 on domain   2:    1.01307 elapsed seconds
Timing for main (dt= 15.47): time 2022-11-12_23:47:29 on domain   3:    0.20312 elapsed seconds
Timing for main (dt= 15.47): time 2022-11-12_23:47:44 on domain   3:    0.20383 elapsed seconds
Timing for main (dt= 15.47): time 2022-11-12_23:48:00 on domain   3:    0.20382 elapsed seconds
Timing for main (dt= 46.42): time 2022-11-12_23:48:00 on domain   2:    1.01779 elapsed seconds
Timing for main (dt=139.26): time 2022-11-12_23:48:00 on domain   1:    3.26058 elapsed seconds
Timing for main (dt= 16.25): time 2022-11-12_23:48:16 on domain   3:    0.19998 elapsed seconds
Timing for main (dt= 16.25): time 2022-11-12_23:48:32 on domain   3:    0.45359 elapsed seconds
Timing for main (dt= 16.25): time 2022-11-12_23:48:48 on domain   3:    0.20248 elapsed seconds
Timing for main (dt= 48.74): time 2022-11-12_23:48:48 on domain   2:    1.56423 elapsed seconds
Timing for main (dt= 16.25): time 2022-11-12_23:49:05 on domain   3:    0.20275 elapsed seconds
Timing for main (dt= 16.25): time 2022-11-12_23:49:21 on domain   3:    0.20327 elapsed seconds
Timing for main (dt= 16.25): time 2022-11-12_23:49:37 on domain   3:    0.20263 elapsed seconds
Timing for main (dt= 48.74): time 2022-11-12_23:49:37 on domain   2:    1.01335 elapsed seconds
Timing for main (dt= 16.25): time 2022-11-12_23:49:53 on domain   3:    0.20415 elapsed seconds
Timing for main (dt= 16.25): time 2022-11-12_23:50:10 on domain   3:    0.20210 elapsed seconds
Timing for main (dt= 16.25): time 2022-11-12_23:50:26 on domain   3:    0.20259 elapsed seconds
Timing for main (dt= 48.74): time 2022-11-12_23:50:26 on domain   2:    1.01001 elapsed seconds
Timing for main (dt=146.22): time 2022-11-12_23:50:26 on domain   1:    3.85232 elapsed seconds
Timing for main (dt= 17.06): time 2022-11-12_23:50:43 on domain   3:    0.21055 elapsed seconds
Timing for main (dt= 17.06): time 2022-11-12_23:51:00 on domain   3:    0.20829 elapsed seconds
Timing for main (dt= 17.06): time 2022-11-12_23:51:17 on domain   3:    0.20994 elapsed seconds
Timing for main (dt= 51.17): time 2022-11-12_23:51:17 on domain   2:    1.04208 elapsed seconds
Timing for main (dt= 17.06): time 2022-11-12_23:51:34 on domain   3:    0.20938 elapsed seconds
Timing for main (dt= 17.06): time 2022-11-12_23:51:51 on domain   3:    0.20807 elapsed seconds
Timing for main (dt= 17.06): time 2022-11-12_23:52:08 on domain   3:    0.20924 elapsed seconds
Timing for main (dt= 51.17): time 2022-11-12_23:52:08 on domain   2:    1.02905 elapsed seconds
Timing for main (dt=102.35): time 2022-11-12_23:52:08 on domain   1:    2.28189 elapsed seconds
Timing for main (dt= 17.91): time 2022-11-12_23:52:26 on domain   3:    0.20870 elapsed seconds
Timing for main (dt= 17.91): time 2022-11-12_23:52:44 on domain   3:    0.20767 elapsed seconds
Timing for main (dt= 17.91): time 2022-11-12_23:53:02 on domain   3:    0.20881 elapsed seconds
Timing for main (dt= 53.74): time 2022-11-12_23:53:02 on domain   2:    1.03601 elapsed seconds
Timing for main (dt= 17.91): time 2022-11-12_23:53:20 on domain   3:    0.20883 elapsed seconds
Timing for main (dt= 17.91): time 2022-11-12_23:53:38 on domain   3:    0.46152 elapsed seconds
Timing for main (dt= 17.91): time 2022-11-12_23:53:56 on domain   3:    0.20734 elapsed seconds
Timing for main (dt= 53.74): time 2022-11-12_23:53:56 on domain   2:    1.56873 elapsed seconds
Timing for main (dt=107.47): time 2022-11-12_23:53:56 on domain   1:    2.81527 elapsed seconds
Timing for main (dt= 18.81): time 2022-11-12_23:54:15 on domain   3:    0.20885 elapsed seconds
Timing for main (dt= 18.81): time 2022-11-12_23:54:33 on domain   3:    0.20623 elapsed seconds
Timing for main (dt= 18.81): time 2022-11-12_23:54:52 on domain   3:    0.20743 elapsed seconds
Timing for main (dt= 56.42): time 2022-11-12_23:54:52 on domain   2:    1.03566 elapsed seconds
Timing for main (dt= 18.81): time 2022-11-12_23:55:11 on domain   3:    0.20936 elapsed seconds
Timing for main (dt= 18.81): time 2022-11-12_23:55:30 on domain   3:    0.20425 elapsed seconds
Timing for main (dt= 18.81): time 2022-11-12_23:55:49 on domain   3:    0.20644 elapsed seconds
Timing for main (dt= 56.42): time 2022-11-12_23:55:49 on domain   2:    1.02749 elapsed seconds
Timing for main (dt=112.84): time 2022-11-12_23:55:49 on domain   1:    2.32905 elapsed seconds
Timing for main (dt= 19.75): time 2022-11-12_23:56:08 on domain   3:    0.20938 elapsed seconds
Timing for main (dt= 19.75): time 2022-11-12_23:56:28 on domain   3:    0.20480 elapsed seconds
Timing for main (dt= 19.75): time 2022-11-12_23:56:48 on domain   3:    0.20606 elapsed seconds
Timing for main (dt= 59.24): time 2022-11-12_23:56:48 on domain   2:    1.03436 elapsed seconds
Timing for main (dt= 19.75): time 2022-11-12_23:57:08 on domain   3:    0.20986 elapsed seconds
Timing for main (dt= 19.75): time 2022-11-12_23:57:27 on domain   3:    0.20289 elapsed seconds
Timing for main (dt= 19.75): time 2022-11-12_23:57:47 on domain   3:    0.20388 elapsed seconds
Timing for main (dt= 59.24): time 2022-11-12_23:57:47 on domain   2:    1.02206 elapsed seconds
Timing for main (dt=118.48): time 2022-11-12_23:57:47 on domain   1:    2.26612 elapsed seconds
Timing for main (dt= 16.56): time 2022-11-12_23:58:04 on domain   3:    0.21052 elapsed seconds
Timing for main (dt= 16.56): time 2022-11-12_23:58:20 on domain   3:    0.20602 elapsed seconds
Timing for main (dt= 33.12): time 2022-11-12_23:58:20 on domain   2:    0.82237 elapsed seconds
Timing for main (dt= 16.56): time 2022-11-12_23:58:37 on domain   3:    0.45694 elapsed seconds
Timing for main (dt= 16.56): time 2022-11-12_23:58:53 on domain   3:    0.20644 elapsed seconds
Timing for main (dt= 33.12): time 2022-11-12_23:58:53 on domain   2:    1.34098 elapsed seconds
Timing for main (dt= 66.24): time 2022-11-12_23:58:53 on domain   1:    2.37512 elapsed seconds
Timing for main (dt= 16.56): time 2022-11-12_23:59:10 on domain   3:    0.21072 elapsed seconds
Timing for main (dt= 16.56): time 2022-11-12_23:59:26 on domain   3:    0.20691 elapsed seconds
Timing for main (dt= 33.12): time 2022-11-12_23:59:26 on domain   2:    0.82053 elapsed seconds
Timing for main (dt= 16.56): time 2022-11-12_23:59:43 on domain   3:    0.21229 elapsed seconds
Timing for main (dt= 16.56): time 2022-11-13_00:00:00 on domain   3:    0.20502 elapsed seconds
 W A R N I N G : Problem opening wrf_var.txt
 W A R N I N G : Problem opening wrf_var.txt
Timing for Writing wrfout_d03_2022-11-13_00:00:00 for domain        3:    0.11776 elapsed seconds
 W A R N I N G : Problem opening wrf_var.txt
 W A R N I N G : Problem opening wrf_var.txt
Timing for Writing auxhist23_d03_2022-11-13_00:00:00 for domain        3:    0.00863 elapsed seconds
Timing for main (dt= 33.12): time 2022-11-13_00:00:00 on domain   2:    0.93596 elapsed seconds
Timing for main (dt= 66.24): time 2022-11-13_00:00:00 on domain   1:    2.09556 elapsed seconds
d01 2022-11-13_00:00:00 wrf: SUCCESS COMPLETE WRF
